@<TRIPOS>MOLECULE
MOL
  179   176     1     0     0
SMALL
resp


@<TRIPOS>ATOM
      1 C1          0.3300    4.9760    4.9390 c3        1 MOL     -0.452309
      2 C2          0.1370    4.2080    3.5400 c         1 MOL      0.669323
      3 O1          1.1230    4.0230    2.8280 o         1 MOL     -0.541617
      4 H1          0.0910    4.3000    5.7600 hc        1 MOL      0.114243
      5 H2          1.3640    5.3080    5.0320 hc        1 MOL      0.114243
      6 H3         -0.3340    5.8380    4.9750 hc        1 MOL      0.114243
      7 N1         -1.1140    3.8920    3.2180 n         1 MOL     -0.579766
      8 C3         -1.4630    3.1280    1.9720 c3        1 MOL      0.108871
      9 C4         -2.0990    4.1390    1.0820 c         1 MOL      0.356074
     10 O2         -3.2840    4.4030    1.2470 o         1 MOL     -0.480717
     11 C5         -2.2990    1.7920    2.1360 c3        1 MOL      0.012087
     12 C6         -2.4170    0.9410    0.8140 c         1 MOL      0.739939
     13 O3         -1.7990    1.3660   -0.1810 o         1 MOL     -0.775634
     14 O4         -3.0410   -0.0950    0.7940 o         1 MOL     -0.775634
     15 H4         -1.8320    3.9470    3.9270 hn        1 MOL      0.326355
     16 H5         -0.5220    2.9060    1.4770 h1        1 MOL      0.046876
     17 H6         -3.2620    1.9120    2.6430 hc        1 MOL      0.010064
     18 H7         -1.7640    1.2240    2.9050 hc        1 MOL      0.010064
     19 N2         -1.3970    4.7500    0.0620 n         1 MOL     -0.145458
     20 C7         -1.8370    5.9460   -0.6000 c3        1 MOL     -0.015607
     21 C8         -2.8060    5.6220   -1.7820 c         1 MOL      0.447806
     22 O5         -3.2950    6.5680   -2.4400 o         1 MOL     -0.555527
     23 C9         -0.6420    6.7530   -1.1520 c3        1 MOL     -0.186915
     24 C10         0.3400    7.1870    0.0320 c3        1 MOL     -0.042853
     25 C11        -0.4120    8.0220    1.1210 c3        1 MOL     -0.043893
     26 C12         0.5990    8.6620    2.0200 c3        1 MOL     -0.018669
     27 N3         -0.0020    9.6150    3.0180 n4        1 MOL     -0.199581
     28 H8         -0.5180    4.3080   -0.1760 hn        1 MOL      0.266998
     29 H9         -2.3980    6.5260    0.1380 h1        1 MOL      0.058239
     30 H10        -1.0850    7.6680   -1.5220 hc        1 MOL      0.102770
     31 H11        -0.1720    6.1780   -1.9530 hc        1 MOL      0.102770
     32 H12         1.1190    7.8200   -0.3930 hc        1 MOL      0.042562
     33 H13         0.6960    6.2590    0.4750 hc        1 MOL      0.042562
     34 H14        -1.0510    7.3940    1.7410 hc        1 MOL      0.041044
     35 H15        -1.0000    8.8150    0.6640 hc        1 MOL      0.041044
     36 H16         1.2570    9.3130    1.4530 hx        1 MOL      0.097195
     37 H17         1.1250    7.8530    2.5300 hx        1 MOL      0.097195
     38 H18         0.6910   10.1470    3.5090 hn        1 MOL      0.282211
     39 H19        -0.7180   10.1740    2.5820 hn        1 MOL      0.282211
     40 H20        -0.6090    9.1510    3.6850 hn        1 MOL      0.282211
     41 N4         -3.0430    4.3600   -1.9990 n         1 MOL     -0.229877
     42 C13        -4.2280    3.8190   -2.7930 c3        1 MOL      0.111343
     43 C14        -5.3130    3.3130   -1.9500 c         1 MOL      0.385266
     44 O6         -6.4720    3.1930   -2.4350 o         1 MOL     -0.564964
     45 C15        -3.7500    2.8460   -3.8900 c3        1 MOL     -0.415136
     46 C16        -2.9510    1.6670   -3.2380 c         1 MOL      0.864243
     47 O7         -1.7320    1.5270   -3.4470 o         1 MOL     -0.722265
     48 O8         -3.6160    0.8360   -2.5360 o         1 MOL     -0.722265
     49 H21        -2.3940    3.6730   -1.6590 hn        1 MOL      0.156082
     50 H22        -4.7390    4.6850   -3.2120 h1        1 MOL      0.103410
     51 H23        -3.2400    3.3010   -4.7360 hc        1 MOL      0.111894
     52 H24        -4.6300    2.3820   -4.3200 hc        1 MOL      0.111894
     53 N5         -5.0540    3.0050   -0.6940 n         1 MOL     -0.003192
     54 C17        -6.0300    2.4350    0.3080 c3        1 MOL     -0.328628
     55 C18        -6.5280    0.9860    0.0800 c         1 MOL      0.569179
     56 O9         -7.3150    0.5140    0.8680 o         1 MOL     -0.572929
     57 H25        -4.1510    3.3280   -0.3730 hn        1 MOL     -0.001984
     58 H26        -6.9000    3.0860    0.2700 h1        1 MOL      0.135899
     59 H27        -5.4660    2.4560    1.2340 h1        1 MOL      0.135899
     60 N6         -5.8830    0.3280   -0.8860 n         1 MOL     -0.265213
     61 C19        -6.2660   -1.0830   -1.1380 c3        1 MOL     -0.010275
     62 C20        -5.9720   -2.0870    0.0490 c         1 MOL      0.319463
     63 O10        -6.4680   -3.1830   -0.0540 o         1 MOL     -0.454318
     64 C21        -5.8310   -1.6460   -2.4500 c3        1 MOL     -0.165318
     65 C22        -4.6510   -2.4900   -2.4380 c         1 MOL      0.731073
     66 N7         -4.6330   -3.5250   -3.1950 n         1 MOL     -0.727858
     67 O11        -3.6660   -2.1670   -1.7630 o         1 MOL     -0.716140
     68 H28        -5.1880    0.8020   -1.4360 hn        1 MOL      0.245025
     69 H29        -7.3470   -0.9710   -1.1570 h1        1 MOL      0.109470
     70 H30        -5.6130   -0.8030   -3.0900 hc        1 MOL      0.055388
     71 H31        -6.6210   -2.2590   -2.8810 hc        1 MOL      0.055388
     72 H32        -5.4540   -3.8970   -3.6600 hn        1 MOL      0.361638
     73 H33        -3.7460   -3.9910   -3.1750 hn        1 MOL      0.361638
     74 N8         -5.3450   -1.6230    1.1630 n         1 MOL     -0.119100
     75 C23        -5.2470   -2.4460    2.3880 c3        1 MOL     -0.315529
     76 C24        -3.8850   -3.1070    2.4350 c         1 MOL      0.577551
     77 O12        -3.6640   -3.9100    3.3370 o         1 MOL     -0.597155
     78 H34        -4.8080   -0.7700    1.1310 hn        1 MOL      0.248401
     79 H35        -6.0610   -3.1710    2.4270 h1        1 MOL      0.148879
     80 H36        -5.2290   -1.8510    3.3030 h1        1 MOL      0.148879
     81 N9         -2.9850   -2.8970    1.5070 n         1 MOL     -0.266826
     82 C25        -1.7020   -3.5930    1.5830 c3        1 MOL      0.090445
     83 C26        -0.4520   -2.6590    1.2670 c         1 MOL      0.397302
     84 O13        -0.6090   -1.6460    0.5530 o         1 MOL     -0.578056
     85 C27        -1.7650   -4.7320    0.5980 c3        1 MOL      0.177137
     86 C28        -2.7200   -5.9090    0.8500 ca        1 MOL      0.011340
     87 C29        -4.0550   -5.8960    0.3940 ca        1 MOL     -0.210943
     88 C30        -2.2990   -7.0710    1.6120 ca        1 MOL     -0.210943
     89 C31        -5.0300   -6.7910    0.7760 ca        1 MOL     -0.186057
     90 C32        -3.2500   -8.0470    1.9470 ca        1 MOL     -0.186057
     91 C33        -4.6160   -7.9220    1.5440 ca        1 MOL      0.297814
     92 O14        -5.5190   -8.9180    1.7300 oh        1 MOL     -0.464415
     93 H37        -3.2100   -2.1800    0.8270 hn        1 MOL      0.262847
     94 H38        -1.4810   -4.0710    2.5400 h1        1 MOL      0.052294
     95 H39        -0.7350   -5.0380    0.4410 hc        1 MOL     -0.066702
     96 H40        -2.0750   -4.2950   -0.3560 hc        1 MOL     -0.066702
     97 H41        -4.3470   -5.0450   -0.2010 ha        1 MOL      0.133121
     98 H42        -1.2740   -7.1940    1.9340 ha        1 MOL      0.133121
     99 H43        -6.0530   -6.7430    0.4370 ha        1 MOL      0.125053
    100 H44        -2.9960   -8.9230    2.5200 ha        1 MOL      0.125053
    101 H45        -5.1740   -9.6160    2.2890 ho        1 MOL      0.344669
    102 N10         0.7140   -2.8270    1.9420 n         1 MOL     -0.430963
    103 C34         1.9760   -2.0840    1.6990 c3        1 MOL     -0.005701
    104 C35         3.0150   -3.1260    1.1620 c         1 MOL      0.600363
    105 O15         3.3000   -4.0430    1.8660 o         1 MOL     -0.551258
    106 C36         2.3130   -1.3710    3.0070 c3        1 MOL     -0.137693
    107 C37         1.1960   -0.3140    3.2070 c3        1 MOL      0.157043
    108 C38         3.6620   -0.7260    2.9750 c3        1 MOL      0.294745
    109 C39         1.4140    0.5420    4.4520 c3        1 MOL     -0.224635
    110 H46         0.7160   -3.5200    2.6760 hn        1 MOL      0.294890
    111 H47         1.7220   -1.3080    0.9730 h1        1 MOL      0.042706
    112 H48         2.2520   -2.0530    3.8540 hc        1 MOL      0.050056
    113 H49         0.2060   -0.7550    3.2950 hc        1 MOL      0.002251
    114 H50         1.0860    0.3960    2.3800 hc        1 MOL      0.002251
    115 H51         4.4400   -1.4850    2.9000 hc        1 MOL     -0.075207
    116 H52         3.8020    0.0100    2.1820 hc        1 MOL     -0.075207
    117 H53         3.8580   -0.3070    3.9570 hc        1 MOL     -0.075207
    118 H54         2.0240    1.3810    4.1370 hc        1 MOL      0.049975
    119 H55         0.4700    0.8830    4.8750 hc        1 MOL      0.049975
    120 H56         1.8850   -0.0720    5.2030 hc        1 MOL      0.049975
    121 N11         3.5570   -2.9710   -0.0360 n         1 MOL     -0.419454
    122 C40         4.7880   -3.5720   -0.5490 c3        1 MOL     -0.067571
    123 C41         6.0350   -2.7400   -0.0400 c         1 MOL      0.486455
    124 O16         5.9060   -1.6330    0.5340 o         1 MOL     -0.385990
    125 C42         4.6340   -3.8420   -2.1070 c3        1 MOL      0.005048
    126 O17         4.3950   -2.6050   -2.8520 oh        1 MOL     -0.603614
    127 H57         3.1640   -2.2400   -0.6260 hn        1 MOL      0.358764
    128 H58         4.8930   -4.5420   -0.0790 h1        1 MOL      0.072301
    129 H59         3.7470   -4.4540   -2.2880 h1        1 MOL      0.076660
    130 H60         5.5110   -4.3330   -2.5220 h1        1 MOL      0.076660
    131 H61         3.5400   -2.2490   -2.5920 ho        1 MOL      0.429312
    132 N12         7.2240   -3.3920   -0.0570 n         1 MOL     -0.435800
    133 C43         8.5200   -2.6860    0.2850 c3        1 MOL      0.093830
    134 C44         8.7190   -1.3400   -0.3470 c         1 MOL      0.490724
    135 O18         8.9560   -0.3290    0.3520 o         1 MOL     -0.521192
    136 C45         9.7370   -3.6490    0.0430 c3        1 MOL     -0.221293
    137 H62         7.1840   -4.3420   -0.3870 hn        1 MOL      0.286626
    138 H63         8.4770   -2.5540    1.3590 h1        1 MOL      0.085087
    139 H64         9.7300   -4.4640    0.7540 hc        1 MOL      0.073366
    140 H65         9.7410   -4.0960   -0.9500 hc        1 MOL      0.073366
    141 H66        10.6650   -3.0880    0.2070 hc        1 MOL      0.073366
    142 N13         8.4190   -1.2220   -1.6620 n         1 MOL     -0.456052
    143 C46         8.3650    0.0190   -2.4740 c3        1 MOL      0.170270
    144 C47         7.3860    1.1080   -1.9960 c         1 MOL      0.384652
    145 O19         7.6470    2.2910   -2.0140 o         1 MOL     -0.502451
    146 C48         8.0790   -0.4000   -3.8970 c3        1 MOL     -0.359809
    147 H67         8.1430   -2.1020   -2.0770 hn        1 MOL      0.286629
    148 H68         9.3220    0.5280   -2.3980 h1        1 MOL      0.077768
    149 H69         8.9430   -0.9930   -4.2140 hc        1 MOL      0.100703
    150 H70         7.1680   -0.9890   -3.9720 hc        1 MOL      0.100703
    151 H71         8.0270    0.5100   -4.5070 hc        1 MOL      0.100703
    152 N14         6.2740    0.6440   -1.3950 n         1 MOL     -0.111063
    153 C49         5.2380    1.5650   -0.8080 c3        1 MOL     -0.170978
    154 C50         5.7280    2.2170    0.5400 c         1 MOL      0.460940
    155 O20         5.6300    3.3900    0.8180 o         1 MOL     -0.555440
    156 C51         3.7790    0.9610   -0.7170 c3        1 MOL      0.093193
    157 C52         3.2910    0.6220   -2.1300 c3        1 MOL     -0.205565
    158 C53         2.0800   -0.2710   -2.0840 c         1 MOL      0.872682
    159 O21         0.9220    0.1730   -1.9180 o         1 MOL     -0.778815
    160 O22         2.2470   -1.4940   -2.1350 o         1 MOL     -0.778815
    161 H72         6.1970   -0.3550   -1.2200 hn        1 MOL      0.125764
    162 H73         5.0310    2.3330   -1.5630 h1        1 MOL      0.111511
    163 H74         3.1070    1.7230   -0.3320 hc        1 MOL      0.022630
    164 H75         3.7450    0.0660   -0.0850 hc        1 MOL      0.022630
    165 H76         4.0230    0.0550   -2.6980 hc        1 MOL      0.037675
    166 H77         2.9230    1.5320   -2.6080 hc        1 MOL      0.037675
    167 N15         6.2800    1.3910    1.4430 n         1 MOL      0.042328
    168 C54         6.8670    1.7040    2.6650 c3        1 MOL     -0.347838
    169 H78         7.9470    1.7820    2.5390 h1        1 MOL      0.112519
    170 H79         6.4740    2.6540    3.0250 h1        1 MOL      0.112519
    171 H80         6.6420    0.9200    3.3880 h1        1 MOL      0.112519
    172 H81         6.2630    0.4240    1.1740 hn        1 MOL      0.076781
    173 Ca1        -1.5650   -0.6440   -1.6790 Ca        1 MOL      1.802201
    174 O23        -1.8900   -1.6850   -4.1010 oh        1 MOL     -0.827810
    175 H82        -2.5440   -1.6390   -4.7930 ho        1 MOL      0.397043
    176 H83        -1.5250   -2.5650   -4.1730 ho        1 MOL      0.397043
    177 O24        -0.0260   -2.8010   -1.8990 oh        1 MOL     -0.827810
    178 H84         0.8350   -2.3890   -1.9370 ho        1 MOL      0.397043
    179 H85         0.1530   -3.7200   -1.7170 ho        1 MOL      0.397043
@<TRIPOS>BOND
     1    1    2 1   
     2    1    4 1   
     3    1    5 1   
     4    1    6 1   
     5    2    3 2   
     6    2    7 1   
     7    7    8 1   
     8    7   15 1   
     9    8    9 1   
    10    8   11 1   
    11    8   16 1   
    12    9   10 2   
    13    9   19 1   
    14   11   12 1   
    15   11   17 1   
    16   11   18 1   
    17   12   13 1   
    18   12   14 1   
    19   19   20 1   
    20   19   28 1   
    21   20   21 1   
    22   20   23 1   
    23   20   29 1   
    24   21   22 2   
    25   21   41 1   
    26   23   24 1   
    27   23   30 1   
    28   23   31 1   
    29   24   25 1   
    30   24   32 1   
    31   24   33 1   
    32   25   26 1   
    33   25   34 1   
    34   25   35 1   
    35   26   27 1   
    36   26   36 1   
    37   26   37 1   
    38   27   38 1   
    39   27   39 1   
    40   27   40 1   
    41   41   42 1   
    42   41   49 1   
    43   42   43 1   
    44   42   45 1   
    45   42   50 1   
    46   43   44 2   
    47   43   53 1   
    48   45   46 1   
    49   45   51 1   
    50   45   52 1   
    51   46   47 1   
    52   46   48 1   
    53   53   54 1   
    54   53   57 1   
    55   54   55 1   
    56   54   58 1   
    57   54   59 1   
    58   55   56 2   
    59   55   60 1   
    60   60   61 1   
    61   60   68 1   
    62   61   62 1   
    63   61   64 1   
    64   61   69 1   
    65   62   63 2   
    66   62   74 1   
    67   64   65 1   
    68   64   70 1   
    69   64   71 1   
    70   65   66 1   
    71   65   67 2   
    72   66   72 1   
    73   66   73 1   
    74   74   75 1   
    75   74   78 1   
    76   75   76 1   
    77   75   79 1   
    78   75   80 1   
    79   76   77 2   
    80   76   81 1   
    81   81   82 1   
    82   81   93 1   
    83   82   83 1   
    84   82   85 1   
    85   82   94 1   
    86   83   84 2   
    87   83  102 1   
    88   85   86 1   
    89   85   95 1   
    90   85   96 1   
    91   86   87 ar  
    92   86   88 ar  
    93   87   89 ar  
    94   87   97 1   
    95   88   90 ar  
    96   88   98 1   
    97   89   91 ar  
    98   89   99 1   
    99   90   91 ar  
   100   90  100 1   
   101   91   92 1   
   102   92  101 1   
   103  102  103 1   
   104  102  110 1   
   105  103  104 1   
   106  103  106 1   
   107  103  111 1   
   108  104  105 2   
   109  104  121 1   
   110  106  107 1   
   111  106  108 1   
   112  106  112 1   
   113  107  109 1   
   114  107  113 1   
   115  107  114 1   
   116  108  115 1   
   117  108  116 1   
   118  108  117 1   
   119  109  118 1   
   120  109  119 1   
   121  109  120 1   
   122  121  122 1   
   123  121  127 1   
   124  122  123 1   
   125  122  125 1   
   126  122  128 1   
   127  123  124 2   
   128  123  132 1   
   129  125  126 1   
   130  125  129 1   
   131  125  130 1   
   132  126  131 1   
   133  132  133 1   
   134  132  137 1   
   135  133  134 1   
   136  133  136 1   
   137  133  138 1   
   138  134  135 2   
   139  134  142 1   
   140  136  139 1   
   141  136  140 1   
   142  136  141 1   
   143  142  143 1   
   144  142  147 1   
   145  143  144 1   
   146  143  146 1   
   147  143  148 1   
   148  144  145 2   
   149  144  152 1   
   150  146  149 1   
   151  146  150 1   
   152  146  151 1   
   153  152  153 1   
   154  152  161 1   
   155  153  154 1   
   156  153  156 1   
   157  153  162 1   
   158  154  155 2   
   159  154  167 1   
   160  156  157 1   
   161  156  163 1   
   162  156  164 1   
   163  157  158 1   
   164  157  165 1   
   165  157  166 1   
   166  158  159 1   
   167  158  160 1   
   168  167  168 1   
   169  167  172 1   
   170  168  169 1   
   171  168  170 1   
   172  168  171 1   
   173  174  175 1   
   174  174  176 1   
   175  177  178 1   
   176  177  179 1   
@<TRIPOS>SUBSTRUCTURE
     1 MOL         1 TEMP              0 ****  ****    0 ROOT
