@<TRIPOS>MOLECULE
MOL
  175   173     1     0     0
SMALL
resp


@<TRIPOS>ATOM
      1 C1         -0.3320   -3.7600    5.4160 c3        1 MOL     -0.317464
      2 C2          0.3020   -3.7720    4.0170 c         1 MOL      0.736294
      3 O1         -0.3640   -4.1860    3.0470 o         1 MOL     -0.569289
      4 H1          0.2020   -3.0530    6.0510 hc        1 MOL      0.074961
      5 H2         -1.3770   -3.4610    5.3390 hc        1 MOL      0.074961
      6 H3         -0.2700   -4.7570    5.8520 hc        1 MOL      0.074961
      7 N1          1.5390   -3.3590    3.8520 n         1 MOL     -0.717286
      8 C3          2.2210   -3.1700    2.5730 c3        1 MOL      0.187871
      9 C4          2.2940   -4.4950    1.7580 c         1 MOL      0.644416
     10 O2          2.8060   -5.5170    2.2620 o         1 MOL     -0.604715
     11 C5          3.6320   -2.7210    2.8910 c3        1 MOL     -0.345378
     12 C6          4.3590   -2.2780    1.6400 c         1 MOL      0.669966
     13 O3          5.6020   -2.4930    1.5320 o         1 MOL     -0.634318
     14 O4          3.6870   -1.8020    0.6850 o         1 MOL     -0.634318
     15 H4          2.0960   -3.3220    4.6940 hn        1 MOL      0.346009
     16 H5          1.6000   -2.4540    2.0390 h1        1 MOL      0.153750
     17 H6          4.1670   -3.5650    3.3280 hc        1 MOL      0.077884
     18 H7          3.5690   -1.9780    3.6820 hc        1 MOL      0.077884
     19 N2          2.0070   -4.4060    0.4750 n         1 MOL     -0.679276
     20 C7          2.3030   -5.4810   -0.5210 c3        1 MOL      0.503349
     21 C8          3.3170   -5.2190   -1.6130 c         1 MOL      0.447309
     22 O5          3.4900   -5.9880   -2.5370 o         1 MOL     -0.563217
     23 C9          0.9560   -5.9790   -1.1150 c3        1 MOL     -0.291352
     24 H8          1.6710   -3.5110    0.1560 hn        1 MOL      0.346021
     25 H9          2.7040   -6.3890   -0.0530 h1        1 MOL     -0.030398
     26 H10         0.2150   -6.1410   -0.3370 hc        1 MOL      0.064174
     27 H11         0.6130   -5.2100   -1.8010 hc        1 MOL      0.064174
     28 H12         1.0340   -6.9420   -1.6200 hc        1 MOL      0.064174
     29 N3          4.0860   -4.1210   -1.5360 n         1 MOL     -0.460931
     30 C10         4.9360   -3.5930   -2.6260 c3        1 MOL      0.134014
     31 C11         6.1430   -2.6590   -2.2180 c         1 MOL      0.285155
     32 O6          7.0700   -2.5710   -3.0390 o         1 MOL     -0.574128
     33 C12         4.0830   -2.7680   -3.6420 c3        1 MOL     -0.258195
     34 C13         3.2030   -1.6810   -2.9480 c         1 MOL      0.605725
     35 O7          1.9690   -1.9220   -2.8990 o         1 MOL     -0.640980
     36 O8          3.7420   -0.7300   -2.2990 o         1 MOL     -0.640980
     37 H13         4.0640   -3.5350   -0.7100 hn        1 MOL      0.284111
     38 H14         5.2630   -4.4330   -3.2390 h1        1 MOL      0.086634
     39 H15         3.4290   -3.5230   -4.0770 hc        1 MOL      0.076322
     40 H16         4.7840   -2.2970   -4.3200 hc        1 MOL      0.076322
     41 N4          6.1790   -2.0740   -1.0510 n         1 MOL      0.090205
     42 C14         7.3370   -1.2190   -0.6630 c3        1 MOL     -0.247423
     43 C15         7.2280    0.2700   -0.9000 c         1 MOL      0.599749
     44 O9          8.1410    0.9980   -0.4960 o         1 MOL     -0.637525
     45 H17         5.3850   -2.1890   -0.4270 hn        1 MOL     -0.028672
     46 H18         8.2380   -1.6410   -1.0850 h1        1 MOL      0.120532
     47 H19         7.4250   -1.4830    0.3930 h1        1 MOL      0.120532
     48 N5          6.2620    0.7980   -1.6600 n         1 MOL     -0.447086
     49 C16         6.2410    2.2120   -2.1110 c3        1 MOL      0.272876
     50 C17         6.0810    3.2650   -0.9650 c         1 MOL      0.233659
     51 O10         5.7990    4.4620   -1.2370 o         1 MOL     -0.478714
     52 C18         5.0630    2.2610   -3.0900 c3        1 MOL     -0.386777
     53 C19         3.6600    2.3680   -2.4670 c         1 MOL      0.771321
     54 N6          2.6090    2.4180   -3.2680 n         1 MOL     -0.728143
     55 O11         3.4850    2.2780   -1.2760 o         1 MOL     -0.679356
     56 H20         5.5360    0.1850   -2.0090 hn        1 MOL      0.280931
     57 H21         7.1370    2.4500   -2.6790 h1        1 MOL      0.072185
     58 H22         5.0530    1.3380   -3.6620 hc        1 MOL      0.091865
     59 H23         5.2350    3.1360   -3.7210 hc        1 MOL      0.091865
     60 H24         2.6980    2.4550   -4.2730 hn        1 MOL      0.344383
     61 H25         1.6520    2.5060   -2.9490 hn        1 MOL      0.344383
     62 N7          6.2880    2.9610    0.3180 n         1 MOL     -0.094216
     63 C20         6.3150    4.0970    1.2990 c3        1 MOL     -0.318033
     64 C21         4.9530    4.8170    1.5330 c         1 MOL      0.568658
     65 O12         4.9370    5.8530    2.1800 o         1 MOL     -0.554320
     66 H26         6.5930    2.0200    0.5370 hn        1 MOL      0.240884
     67 H27         6.9890    4.8490    0.8790 h1        1 MOL      0.136841
     68 H28         6.7250    3.7990    2.2660 h1        1 MOL      0.136841
     69 N8          3.7630    4.3030    0.9510 n         1 MOL     -0.311885
     70 C22         2.3800    4.7280    1.2220 c3        1 MOL     -0.110710
     71 C23         1.4290    3.5430    1.3620 c         1 MOL      0.468792
     72 O13         1.6810    2.4370    0.8600 o         1 MOL     -0.470513
     73 C24         1.8930    5.6810    0.1110 c3        1 MOL      0.556175
     74 C25         2.6230    6.9710    0.1150 c3        1 MOL     -0.419966
     75 O14         2.0880    5.0970   -1.0980 oh        1 MOL     -0.583956
     76 H29         3.8960    3.5140    0.3330 hn        1 MOL      0.262958
     77 H30         2.3250    5.2360    2.1810 h1        1 MOL      0.060128
     78 H31         0.8530    5.9570    0.2410 h1        1 MOL     -0.062021
     79 H32         1.9290    4.1690   -0.9310 ho        1 MOL      0.350185
     80 H33         3.6400    6.8240   -0.2420 hc        1 MOL      0.094786
     81 H34         2.0220    7.6450   -0.5060 hc        1 MOL      0.094786
     82 H35         2.5610    7.3890    1.1220 hc        1 MOL      0.094786
     83 N9          0.3080    3.7710    1.9850 n         1 MOL     -0.401800
     84 C26        -0.8990    2.8590    2.0040 c3        1 MOL      0.060663
     85 C27        -1.7650    3.0660    0.7270 c         1 MOL      0.348714
     86 O15        -2.1920    4.2110    0.4440 o         1 MOL     -0.549834
     87 C28        -1.6880    2.9820    3.2900 c3        1 MOL      0.038965
     88 C29        -0.9070    2.1560    4.3680 c3        1 MOL      0.080208
     89 C30        -3.1300    2.4820    3.2740 c3        1 MOL     -0.024646
     90 C31        -1.4570    2.3500    5.7820 c3        1 MOL     -0.140953
     91 H36         0.1480    4.7160    2.2890 hn        1 MOL      0.240068
     92 H37        -0.6420    1.7990    2.0070 h1        1 MOL      0.070612
     93 H38        -1.7850    4.0280    3.5870 hc        1 MOL      0.012213
     94 H39         0.1230    2.4750    4.2700 hc        1 MOL     -0.022617
     95 H40        -0.9650    1.0950    4.1260 hc        1 MOL     -0.022617
     96 H41        -3.1400    1.4300    2.9930 hc        1 MOL     -0.006732
     97 H42        -3.7630    2.7300    4.1240 hc        1 MOL     -0.006732
     98 H43        -3.6910    2.8890    2.4310 hc        1 MOL     -0.006732
     99 H44        -1.7470    3.4050    5.8780 hc        1 MOL      0.023575
    100 H45        -2.2800    1.6640    5.9430 hc        1 MOL      0.023575
    101 H46        -0.6590    2.1580    6.4910 hc        1 MOL      0.023575
    102 N10        -1.9870    1.9480   -0.0260 n         1 MOL     -0.043366
    103 C32        -2.7990    1.8600   -1.2230 c3        1 MOL      0.117291
    104 C33        -4.1690    1.3480   -0.8360 c         1 MOL      0.271370
    105 O16        -4.3410    0.7800    0.2610 o         1 MOL     -0.234589
    106 C34        -2.1010    0.9490   -2.2230 c3        1 MOL     -0.230895
    107 C35        -0.6410    1.3410   -2.4350 c         1 MOL      0.643713
    108 O17        -0.4020    2.0480   -3.4240 o         1 MOL     -0.657057
    109 O18         0.3590    1.0300   -1.7010 o         1 MOL     -0.657057
    110 H47        -1.4840    1.1320    0.2770 hn        1 MOL      0.090092
    111 H48        -2.8750    2.8610   -1.6600 h1        1 MOL      0.044901
    112 H49        -2.5450    1.0140   -3.2130 hc        1 MOL      0.077122
    113 H50        -2.1280   -0.0750   -1.8500 hc        1 MOL      0.077122
    114 N11        -5.1790    1.3970   -1.7250 n         1 MOL     -0.548592
    115 C36        -6.6340    1.0610   -1.4830 c3        1 MOL      0.440083
    116 C37        -6.8110   -0.4300   -1.1650 c         1 MOL      0.345899
    117 O19        -7.5290   -0.6180   -0.1480 o         1 MOL     -0.517745
    118 C38        -7.4960    1.5230   -2.6450 c3        1 MOL     -0.285879
    119 C39        -8.8620    1.8240   -2.1880 ca        1 MOL      0.034736
    120 C40        -9.8150    0.7790   -2.0440 ca        1 MOL     -0.079717
    121 C41        -9.2590    3.1320   -1.8790 ca        1 MOL     -0.079717
    122 C42       -11.1140    0.9940   -1.7230 ca        1 MOL     -0.153069
    123 C43       -10.6300    3.3700   -1.5220 ca        1 MOL     -0.153069
    124 C44       -11.5230    2.2780   -1.4290 ca        1 MOL     -0.117631
    125 H51        -4.9410    1.8040   -2.6150 hn        1 MOL      0.302675
    126 H52        -6.9860    1.5240   -0.5580 h1        1 MOL      0.019894
    127 H53        -7.6220    0.7130   -3.3670 hc        1 MOL      0.083519
    128 H54        -7.0330    2.4310   -3.0250 hc        1 MOL      0.083519
    129 H55        -9.5050   -0.2520   -2.1870 ha        1 MOL      0.098529
    130 H56        -8.6840    4.0330   -2.0160 ha        1 MOL      0.098529
    131 H57       -11.8440    0.2310   -1.5290 ha        1 MOL      0.119729
    132 H58       -10.8920    4.4030   -1.3440 ha        1 MOL      0.119729
    133 H59       -12.4860    2.4130   -0.9540 ha        1 MOL      0.106235
    134 N12        -6.1440   -1.4560   -1.7180 n         1 MOL     -0.105364
    135 C45        -6.2380   -2.8640   -1.3440 c3        1 MOL     -0.074162
    136 C46        -5.5050   -3.2070    0.0070 c         1 MOL      0.388785
    137 O20        -5.6410   -4.2500    0.5840 o         1 MOL     -0.526554
    138 C47        -5.6120   -3.6810   -2.5270 c3        1 MOL      0.009513
    139 C48        -5.4530   -2.6560   -3.6680 c3        1 MOL     -0.099427
    140 C49        -5.3660   -1.3010   -2.9320 c3        1 MOL      0.138257
    141 H60        -7.2980   -3.0750   -1.1910 h1        1 MOL      0.086429
    142 H61        -4.6690   -4.1080   -2.1740 hc        1 MOL      0.037642
    143 H62        -6.2320   -4.5370   -2.7930 hc        1 MOL      0.037642
    144 H63        -4.6010   -2.8790   -4.3170 hc        1 MOL      0.036415
    145 H64        -6.3820   -2.6320   -4.2450 hc        1 MOL      0.036415
    146 H65        -4.3590   -0.9360   -2.7170 h1        1 MOL     -0.016746
    147 H66        -5.7660   -0.5080   -3.5730 h1        1 MOL     -0.016746
    148 N13        -4.6960   -2.3010    0.4850 n         1 MOL     -0.178832
    149 C50        -3.9500   -2.3500    1.7170 c3        1 MOL      0.165015
    150 C51        -4.7520   -1.6020    2.8240 c         1 MOL      0.422251
    151 O21        -4.9170   -2.1810    3.8710 o         1 MOL     -0.541250
    152 C52        -2.5690   -1.7760    1.6760 c3        1 MOL     -0.017958
    153 C53        -1.7050   -2.2270    0.4940 c3        1 MOL     -0.096785
    154 C54        -0.3930   -1.5000    0.4850 c         1 MOL      0.570341
    155 O22         0.5670   -1.9910   -0.0960 o         1 MOL     -0.686007
    156 O23        -0.2210   -0.4320    1.1110 o         1 MOL     -0.686007
    157 H67        -4.7010   -1.3970    0.0360 hn        1 MOL      0.076565
    158 H68        -3.9210   -3.3820    2.0840 h1        1 MOL      0.040404
    159 H69        -2.1560   -2.2570    2.5640 hc        1 MOL      0.005278
    160 H70        -2.8740   -0.7370    1.7160 hc        1 MOL      0.005278
    161 H71        -2.1460   -2.0810   -0.4900 hc        1 MOL      0.067758
    162 H72        -1.6380   -3.3110    0.6300 hc        1 MOL      0.067758
    163 N14        -5.3410   -0.3680    2.5260 n         1 MOL     -0.059786
    164 C55        -6.3690    0.2840    3.3940 c3        1 MOL     -0.297521
    165 H73        -5.8740    0.8010    4.2160 h1        1 MOL      0.106044
    166 H74        -6.9400    1.0030    2.8050 h1        1 MOL      0.106044
    167 H75        -7.0420   -0.4750    3.7950 h1        1 MOL      0.106044
    168 H76        -5.2580   -0.0900    1.5580 hn        1 MOL      0.037388
    169 Ca1         2.2680   -0.0770   -0.2610 Ca        1 MOL      1.668387
    170 O24         1.8080   -0.0820    2.6680 oh        1 MOL     -0.851541
    171 H77         1.7680   -0.0970    3.6310 ho        1 MOL      0.399890
    172 H78         0.9030   -0.2300    2.3980 ho        1 MOL      0.399890
    173 O25         4.2390    1.0100    1.3480 oh        1 MOL     -0.851541
    174 H79         3.6720    0.6720    2.0340 ho        1 MOL      0.399890
    175 H80         5.1200    0.7310    1.6100 ho        1 MOL      0.399890
@<TRIPOS>BOND
     1    1    2 1   
     2    1    4 1   
     3    1    5 1   
     4    1    6 1   
     5    2    3 2   
     6    2    7 1   
     7    7    8 1   
     8    7   15 1   
     9    8    9 1   
    10    8   11 1   
    11    8   16 1   
    12    9   10 2   
    13    9   19 1   
    14   11   12 1   
    15   11   17 1   
    16   11   18 1   
    17   12   13 1   
    18   12   14 1   
    19   19   20 1   
    20   19   24 1   
    21   20   21 1   
    22   20   23 1   
    23   20   25 1   
    24   21   22 2   
    25   21   29 1   
    26   23   26 1   
    27   23   27 1   
    28   23   28 1   
    29   29   30 1   
    30   29   37 1   
    31   30   31 1   
    32   30   33 1   
    33   30   38 1   
    34   31   32 2   
    35   31   41 1   
    36   33   34 1   
    37   33   39 1   
    38   33   40 1   
    39   34   35 1   
    40   34   36 1   
    41   41   42 1   
    42   41   45 1   
    43   42   43 1   
    44   42   46 1   
    45   42   47 1   
    46   43   44 2   
    47   43   48 1   
    48   48   49 1   
    49   48   56 1   
    50   49   50 1   
    51   49   52 1   
    52   49   57 1   
    53   50   51 2   
    54   50   62 1   
    55   52   53 1   
    56   52   58 1   
    57   52   59 1   
    58   53   54 1   
    59   53   55 2   
    60   54   60 1   
    61   54   61 1   
    62   62   63 1   
    63   62   66 1   
    64   63   64 1   
    65   63   67 1   
    66   63   68 1   
    67   64   65 2   
    68   64   69 1   
    69   69   70 1   
    70   69   76 1   
    71   70   71 1   
    72   70   73 1   
    73   70   77 1   
    74   71   72 2   
    75   71   83 1   
    76   73   74 1   
    77   73   75 1   
    78   73   78 1   
    79   74   80 1   
    80   74   81 1   
    81   74   82 1   
    82   75   79 1   
    83   83   84 1   
    84   83   91 1   
    85   84   85 1   
    86   84   87 1   
    87   84   92 1   
    88   85   86 2   
    89   85  102 1   
    90   87   88 1   
    91   87   89 1   
    92   87   93 1   
    93   88   90 1   
    94   88   94 1   
    95   88   95 1   
    96   89   96 1   
    97   89   97 1   
    98   89   98 1   
    99   90   99 1   
   100   90  100 1   
   101   90  101 1   
   102  102  103 1   
   103  102  110 1   
   104  103  104 1   
   105  103  106 1   
   106  103  111 1   
   107  104  105 2   
   108  104  114 1   
   109  106  107 1   
   110  106  112 1   
   111  106  113 1   
   112  107  108 1   
   113  107  109 1   
   114  114  115 1   
   115  114  125 1   
   116  115  116 1   
   117  115  118 1   
   118  115  126 1   
   119  116  117 2   
   120  116  134 1   
   121  118  119 1   
   122  118  127 1   
   123  118  128 1   
   124  119  120 ar  
   125  119  121 ar  
   126  120  122 ar  
   127  120  129 1   
   128  121  123 ar  
   129  121  130 1   
   130  122  124 ar  
   131  122  131 1   
   132  123  124 ar  
   133  123  132 1   
   134  124  133 1   
   135  134  135 1   
   136  134  140 1   
   137  135  136 1   
   138  135  138 1   
   139  135  141 1   
   140  136  137 2   
   141  136  148 1   
   142  138  139 1   
   143  138  142 1   
   144  138  143 1   
   145  139  140 1   
   146  139  144 1   
   147  139  145 1   
   148  140  146 1   
   149  140  147 1   
   150  148  149 1   
   151  148  157 1   
   152  149  150 1   
   153  149  152 1   
   154  149  158 1   
   155  150  151 2   
   156  150  163 1   
   157  152  153 1   
   158  152  159 1   
   159  152  160 1   
   160  153  154 1   
   161  153  161 1   
   162  153  162 1   
   163  154  155 1   
   164  154  156 1   
   165  163  164 1   
   166  163  168 1   
   167  164  165 1   
   168  164  166 1   
   169  164  167 1   
   170  170  171 1   
   171  170  172 1   
   172  173  174 1   
   173  173  175 1   
@<TRIPOS>SUBSTRUCTURE
     1 MOL         1 TEMP              0 ****  ****    0 ROOT
