@<TRIPOS>MOLECULE
MOL
  175   173     1     0     0
SMALL
resp


@<TRIPOS>ATOM
      1 C1          0.7650    3.7300    5.6430 c3        1 MOL     -0.399020
      2 C2          0.1750    3.9560    4.2950 c         1 MOL      0.717391
      3 O1          0.9280    4.2310    3.3690 o         1 MOL     -0.554872
      4 H1          0.4150    4.5040    6.3270 hc        1 MOL      0.097443
      5 H2          0.4590    2.7520    6.0150 hc        1 MOL      0.097443
      6 H3          1.8530    3.7690    5.5760 hc        1 MOL      0.097443
      7 N1         -1.1270    3.7550    4.0700 n         1 MOL     -0.633272
      8 C3         -1.7090    3.5690    2.7540 c3        1 MOL      0.135675
      9 C4         -1.8370    4.8190    1.7880 c         1 MOL      0.568114
     10 O2         -2.1120    5.9730    2.2210 o         1 MOL     -0.573823
     11 C5         -3.0420    2.9140    2.9610 c3        1 MOL     -0.327541
     12 C6         -3.7910    2.6380    1.7050 c         1 MOL      0.816515
     13 O3         -5.0280    2.8320    1.7530 o         1 MOL     -0.669034
     14 O4         -3.2340    2.0660    0.7470 o         1 MOL     -0.669034
     15 H4         -1.6690    3.7280    4.9150 hn        1 MOL      0.326972
     16 H5         -1.0340    2.9110    2.2180 h1        1 MOL      0.086390
     17 H6         -3.6470    3.5210    3.6310 hc        1 MOL      0.058992
     18 H7         -2.9200    1.9750    3.5010 hc        1 MOL      0.058992
     19 N2         -1.7140    4.6170    0.4860 n         1 MOL     -0.615559
     20 C7         -2.0890    5.6680   -0.5300 c3        1 MOL      0.377895
     21 C8         -3.1830    5.2420   -1.5680 c         1 MOL      0.365312
     22 O5         -3.4890    5.9990   -2.4940 o         1 MOL     -0.569419
     23 C9         -0.7950    6.1040   -1.1970 c3        1 MOL     -0.070161
     24 H8         -1.5490    3.6620    0.2350 hn        1 MOL      0.295111
     25 H9         -2.4520    6.5750   -0.0580 h1        1 MOL      0.009892
     26 H10        -0.9430    6.9360   -1.8800 hc        1 MOL      0.013338
     27 H11        -0.1410    6.5490   -0.4490 hc        1 MOL      0.013338
     28 H12        -0.2260    5.3690   -1.7680 hc        1 MOL      0.013338
     29 N3         -3.7260    4.0200   -1.5580 n         1 MOL     -0.315442
     30 C10        -4.5690    3.4700   -2.6720 c3        1 MOL      0.179187
     31 C11        -5.8750    2.7910   -2.2050 c         1 MOL      0.346997
     32 O6         -6.8030    2.5350   -2.9710 o         1 MOL     -0.572777
     33 C12        -3.7070    2.5950   -3.6250 c3        1 MOL     -0.267635
     34 C13        -3.1580    1.3450   -2.8520 c         1 MOL      0.774987
     35 O7         -1.9430    0.9730   -3.0020 o         1 MOL     -0.727180
     36 O8         -3.8860    0.7050   -2.0280 o         1 MOL     -0.727180
     37 H13        -3.3960    3.4190   -0.8270 hn        1 MOL      0.177360
     38 H14        -4.9670    4.2940   -3.2530 h1        1 MOL      0.078198
     39 H15        -2.8530    3.1260   -4.0620 hc        1 MOL      0.070799
     40 H16        -4.3320    2.2230   -4.4400 hc        1 MOL      0.070799
     41 N4         -6.0750    2.4580   -0.9440 n         1 MOL     -0.118649
     42 C14        -7.2930    1.8010   -0.4970 c3        1 MOL     -0.210613
     43 C15        -7.3830    0.2980   -0.8110 c         1 MOL      0.561674
     44 O9         -8.3280   -0.3760   -0.4010 o         1 MOL     -0.630455
     45 H17        -5.3340    2.6030   -0.2660 hn        1 MOL      0.084692
     46 H18        -8.2320    2.2480   -0.8250 h1        1 MOL      0.116444
     47 H19        -7.2680    1.8520    0.5850 h1        1 MOL      0.116444
     48 N5         -6.3910   -0.3330   -1.4990 n         1 MOL     -0.285748
     49 C16        -6.5120   -1.7940   -1.9010 c3        1 MOL     -0.015602
     50 C17        -6.6360   -2.7070   -0.6960 c         1 MOL      0.554019
     51 O10        -7.1840   -3.7910   -0.8450 o         1 MOL     -0.601619
     52 C18        -5.4600   -2.2290   -2.9210 c3        1 MOL     -0.193286
     53 C19        -4.0790   -2.2270   -2.4210 c         1 MOL      0.752054
     54 N6         -3.1030   -2.2810   -3.2410 n         1 MOL     -0.672507
     55 O11        -3.7900   -2.2690   -1.1960 o         1 MOL     -0.712452
     56 H20        -5.5090    0.1430   -1.6140 hn        1 MOL      0.218293
     57 H21        -7.4310   -1.8910   -2.4790 h1        1 MOL      0.090273
     58 H22        -5.5460   -1.5920   -3.8000 hc        1 MOL      0.063093
     59 H23        -5.7150   -3.2610   -3.1950 hc        1 MOL      0.063093
     60 H24        -3.1880   -2.3200   -4.2470 hn        1 MOL      0.339520
     61 H25        -2.1900   -2.1810   -2.8340 hn        1 MOL      0.339520
     62 N7         -6.1840   -2.2950    0.4740 n         1 MOL     -0.131624
     63 C20        -6.3260   -3.1220    1.6300 c3        1 MOL     -0.411509
     64 C21        -5.1460   -4.0900    1.8010 c         1 MOL      0.596195
     65 O12        -5.1750   -4.9360    2.6730 o         1 MOL     -0.584650
     66 H26        -5.6700   -1.4370    0.5090 hn        1 MOL      0.258987
     67 H27        -7.2080   -3.7490    1.4950 h1        1 MOL      0.156304
     68 H28        -6.5090   -2.5070    2.5090 h1        1 MOL      0.156304
     69 N8         -4.0390   -3.9480    1.0330 n         1 MOL     -0.338302
     70 C22        -2.7470   -4.6710    1.1720 c3        1 MOL     -0.105663
     71 C23        -1.5990   -3.6520    1.3050 c         1 MOL      0.436191
     72 O13        -1.7760   -2.5020    0.8030 o         1 MOL     -0.456244
     73 C24        -2.5630   -5.5790   -0.0550 c3        1 MOL      0.603988
     74 C25        -3.2840   -6.8900    0.0180 c3        1 MOL     -0.293608
     75 O14        -2.9650   -5.0440   -1.3010 oh        1 MOL     -0.645715
     76 H29        -4.1200   -3.3950    0.1930 hn        1 MOL      0.239766
     77 H30        -2.8710   -5.3780    1.9930 h1        1 MOL      0.080550
     78 H31        -1.5120   -5.8450   -0.0630 h1        1 MOL     -0.054873
     79 H32        -3.0520   -4.0970   -1.1610 ho        1 MOL      0.353832
     80 H33        -2.8140   -7.4550    0.8190 hc        1 MOL      0.051501
     81 H34        -4.2720   -6.6420    0.3880 hc        1 MOL      0.051501
     82 H35        -3.2480   -7.4900   -0.8890 hc        1 MOL      0.051501
     83 N9         -0.4520   -4.0430    1.9020 n         1 MOL     -0.484814
     84 C26         0.7930   -3.1820    1.9690 c3        1 MOL      0.029436
     85 C27         1.4000   -3.3730    0.5380 c         1 MOL      0.512551
     86 O15         1.3250   -4.5060   -0.0190 o         1 MOL     -0.561979
     87 C28         1.8000   -3.4310    3.1450 c3        1 MOL      0.026386
     88 C29         1.0860   -3.1090    4.4300 c3        1 MOL      0.092393
     89 C30         3.1040   -2.5740    3.0770 c3        1 MOL     -0.266662
     90 C31         1.8190   -3.2300    5.7670 c3        1 MOL     -0.221635
     91 H36        -0.3750   -4.9280    2.3750 hn        1 MOL      0.299805
     92 H37         0.5320   -2.1320    2.0720 h1        1 MOL      0.041704
     93 H38         2.0800   -4.4850    3.1570 hc        1 MOL      0.020339
     94 H39         0.1790   -3.7040    4.5280 hc        1 MOL     -0.007280
     95 H40         0.7060   -2.0890    4.3720 hc        1 MOL     -0.007280
     96 H41         2.9590   -1.5030    2.9680 hc        1 MOL      0.075380
     97 H42         3.6580   -2.5990    4.0300 hc        1 MOL      0.075380
     98 H43         3.6860   -3.0350    2.2870 hc        1 MOL      0.075380
     99 H44         2.3310   -2.3140    6.0470 hc        1 MOL      0.051824
    100 H45         1.0960   -3.2900    6.5790 hc        1 MOL      0.051824
    101 H46         2.5470   -4.0350    5.8950 hc        1 MOL      0.051824
    102 N10         1.8990   -2.2550   -0.0330 n         1 MOL     -0.312452
    103 C32         2.5960   -2.0460   -1.3360 c3        1 MOL     -0.046581
    104 C33         3.9780   -1.5320   -1.0150 c         1 MOL      0.629534
    105 O16         4.1610   -0.8120   -0.0510 o         1 MOL     -0.444179
    106 C34         1.7790   -1.2570   -2.3280 c3        1 MOL     -0.192471
    107 C35         0.3490   -1.7800   -2.6640 c         1 MOL      0.723813
    108 O17        -0.5780   -1.6560   -1.8500 o         1 MOL     -0.682467
    109 O18         0.2370   -2.1940   -3.8930 o         1 MOL     -0.682467
    110 H47         1.8380   -1.4170    0.5120 hn        1 MOL      0.266742
    111 H48         2.7820   -3.0250   -1.7720 h1        1 MOL      0.074204
    112 H49         2.3880   -1.2100   -3.2240 hc        1 MOL      0.073025
    113 H50         1.6190   -0.2160   -2.0280 hc        1 MOL      0.073025
    114 N11         5.0690   -1.9250   -1.7380 n         1 MOL     -0.743585
    115 C36         6.4630   -1.4980   -1.4200 c3        1 MOL      0.439581
    116 C37         6.6590    0.0360   -1.1910 c         1 MOL      0.275771
    117 O19         7.3950    0.3060   -0.1880 o         1 MOL     -0.444847
    118 C38         7.4240   -2.0030   -2.5240 c3        1 MOL     -0.370226
    119 C39         8.8980   -1.7410   -2.1680 ca        1 MOL      0.160304
    120 C40         9.4760   -2.6020   -1.2240 ca        1 MOL     -0.241621
    121 C41         9.6410   -0.6290   -2.5520 ca        1 MOL     -0.241621
    122 C42        10.7510   -2.3830   -0.6230 ca        1 MOL     -0.029565
    123 C43        10.9230   -0.4110   -1.9920 ca        1 MOL     -0.029565
    124 C44        11.4900   -1.2450   -0.9870 ca        1 MOL     -0.170276
    125 H51         5.0090   -2.6260   -2.4690 hn        1 MOL      0.341248
    126 H52         6.6700   -2.0310   -0.4910 h1        1 MOL      0.051704
    127 H53         7.1180   -1.5580   -3.4690 hc        1 MOL      0.111404
    128 H54         7.3020   -3.0810   -2.6630 hc        1 MOL      0.111404
    129 H55         8.9260   -3.5030   -1.0030 ha        1 MOL      0.129766
    130 H56         9.2030    0.0640   -3.2540 ha        1 MOL      0.129766
    131 H57        11.1780   -3.1930   -0.0500 ha        1 MOL      0.087443
    132 H58        11.5430    0.3810   -2.4130 ha        1 MOL      0.087443
    133 H59        12.4470   -1.0980   -0.5120 ha        1 MOL      0.121757
    134 N12         6.0540    0.9530   -2.0260 n         1 MOL     -0.044331
    135 C45         5.9970    2.3760   -1.7710 c3        1 MOL     -0.011542
    136 C46         5.5110    2.7510   -0.4070 c         1 MOL      0.229204
    137 O20         5.8510    3.8930   -0.0620 o         1 MOL     -0.514031
    138 C47         5.0120    2.9820   -2.8010 c3        1 MOL      0.035397
    139 C48         5.2250    2.0710   -4.0090 c3        1 MOL      0.039513
    140 C49         5.4100    0.7260   -3.3420 c3        1 MOL     -0.048058
    141 H60         6.9320    2.8820   -2.0060 h1        1 MOL      0.091697
    142 H61         3.9630    3.0780   -2.5540 hc        1 MOL      0.025223
    143 H62         5.4170    3.9700   -3.0410 hc        1 MOL      0.025223
    144 H63         4.4420    2.1240   -4.7630 hc        1 MOL      0.002408
    145 H64         6.1820    2.4210   -4.4040 hc        1 MOL      0.002408
    146 H65         4.3990    0.3580   -3.1650 h1        1 MOL      0.038014
    147 H66         5.9980    0.0810   -4.0040 h1        1 MOL      0.038014
    148 N13         4.7840    1.9040    0.3160 n         1 MOL      0.028954
    149 C50         4.2920    2.2500    1.6930 c3        1 MOL     -0.082010
    150 C51         5.1680    1.5370    2.7370 c         1 MOL      0.456262
    151 O21         5.1820    1.9820    3.8690 o         1 MOL     -0.529981
    152 C52         2.8320    1.8400    1.7640 c3        1 MOL      0.057928
    153 C53         1.8820    2.1860    0.5450 c3        1 MOL     -0.079396
    154 C54         0.5710    1.3890    0.5950 c         1 MOL      0.642393
    155 O22        -0.4410    1.8910   -0.0030 o         1 MOL     -0.730350
    156 O23         0.4580    0.2360    0.9330 o         1 MOL     -0.730350
    157 H67         4.7300    0.9380    0.0420 hn        1 MOL     -0.037286
    158 H68         4.4200    3.3080    1.9100 h1        1 MOL      0.110487
    159 H69         2.4460    2.3690    2.6320 hc        1 MOL      0.019085
    160 H70         2.5980    0.7920    1.9420 hc        1 MOL      0.019085
    161 H71         2.2650    1.8550   -0.4130 hc        1 MOL      0.057934
    162 H72         1.8230    3.2640    0.4670 hc        1 MOL      0.057934
    163 N14         5.8970    0.4230    2.3320 n         1 MOL     -0.191607
    164 C55         6.5930   -0.4510    3.2480 c3        1 MOL      0.004789
    165 H73         6.4910   -0.0690    4.2630 h1        1 MOL      0.025596
    166 H74         6.1660   -1.4520    3.1920 h1        1 MOL      0.025596
    167 H75         7.6490   -0.4910    2.9800 h1        1 MOL      0.025596
    168 H76         5.7990    0.1580    1.3640 hn        1 MOL      0.122008
    169 Ca1        -2.1290   -0.0840   -0.2830 Ca        1 MOL      1.724813
    170 O24        -1.5000   -0.1000    2.5300 oh        1 MOL     -0.834944
    171 H77        -0.6270    0.1160    2.1890 ho        1 MOL      0.406022
    172 H78        -1.4420    0.0560    3.4660 ho        1 MOL      0.406022
    173 O25        -4.2690   -0.4950    1.6700 oh        1 MOL     -0.834944
    174 H79        -3.6350   -1.0260    2.1530 ho        1 MOL      0.406022
    175 H80        -4.7930   -0.0700    2.3510 ho        1 MOL      0.406022
@<TRIPOS>BOND
     1    1    2 1   
     2    1    4 1   
     3    1    5 1   
     4    1    6 1   
     5    2    3 2   
     6    2    7 1   
     7    7    8 1   
     8    7   15 1   
     9    8    9 1   
    10    8   11 1   
    11    8   16 1   
    12    9   10 2   
    13    9   19 1   
    14   11   12 1   
    15   11   17 1   
    16   11   18 1   
    17   12   13 1   
    18   12   14 1   
    19   19   20 1   
    20   19   24 1   
    21   20   21 1   
    22   20   23 1   
    23   20   25 1   
    24   21   22 2   
    25   21   29 1   
    26   23   26 1   
    27   23   27 1   
    28   23   28 1   
    29   29   30 1   
    30   29   37 1   
    31   30   31 1   
    32   30   33 1   
    33   30   38 1   
    34   31   32 2   
    35   31   41 1   
    36   33   34 1   
    37   33   39 1   
    38   33   40 1   
    39   34   35 1   
    40   34   36 1   
    41   41   42 1   
    42   41   45 1   
    43   42   43 1   
    44   42   46 1   
    45   42   47 1   
    46   43   44 2   
    47   43   48 1   
    48   48   49 1   
    49   48   56 1   
    50   49   50 1   
    51   49   52 1   
    52   49   57 1   
    53   50   51 2   
    54   50   62 1   
    55   52   53 1   
    56   52   58 1   
    57   52   59 1   
    58   53   54 1   
    59   53   55 2   
    60   54   60 1   
    61   54   61 1   
    62   62   63 1   
    63   62   66 1   
    64   63   64 1   
    65   63   67 1   
    66   63   68 1   
    67   64   65 2   
    68   64   69 1   
    69   69   70 1   
    70   69   76 1   
    71   70   71 1   
    72   70   73 1   
    73   70   77 1   
    74   71   72 2   
    75   71   83 1   
    76   73   74 1   
    77   73   75 1   
    78   73   78 1   
    79   74   80 1   
    80   74   81 1   
    81   74   82 1   
    82   75   79 1   
    83   83   84 1   
    84   83   91 1   
    85   84   85 1   
    86   84   87 1   
    87   84   92 1   
    88   85   86 2   
    89   85  102 1   
    90   87   88 1   
    91   87   89 1   
    92   87   93 1   
    93   88   90 1   
    94   88   94 1   
    95   88   95 1   
    96   89   96 1   
    97   89   97 1   
    98   89   98 1   
    99   90   99 1   
   100   90  100 1   
   101   90  101 1   
   102  102  103 1   
   103  102  110 1   
   104  103  104 1   
   105  103  106 1   
   106  103  111 1   
   107  104  105 2   
   108  104  114 1   
   109  106  107 1   
   110  106  112 1   
   111  106  113 1   
   112  107  108 1   
   113  107  109 1   
   114  114  115 1   
   115  114  125 1   
   116  115  116 1   
   117  115  118 1   
   118  115  126 1   
   119  116  117 2   
   120  116  134 1   
   121  118  119 1   
   122  118  127 1   
   123  118  128 1   
   124  119  120 ar  
   125  119  121 ar  
   126  120  122 ar  
   127  120  129 1   
   128  121  123 ar  
   129  121  130 1   
   130  122  124 ar  
   131  122  131 1   
   132  123  124 ar  
   133  123  132 1   
   134  124  133 1   
   135  134  135 1   
   136  134  140 1   
   137  135  136 1   
   138  135  138 1   
   139  135  141 1   
   140  136  137 2   
   141  136  148 1   
   142  138  139 1   
   143  138  142 1   
   144  138  143 1   
   145  139  140 1   
   146  139  144 1   
   147  139  145 1   
   148  140  146 1   
   149  140  147 1   
   150  148  149 1   
   151  148  157 1   
   152  149  150 1   
   153  149  152 1   
   154  149  158 1   
   155  150  151 2   
   156  150  163 1   
   157  152  153 1   
   158  152  159 1   
   159  152  160 1   
   160  153  154 1   
   161  153  161 1   
   162  153  162 1   
   163  154  155 1   
   164  154  156 1   
   165  163  164 1   
   166  163  168 1   
   167  164  165 1   
   168  164  166 1   
   169  164  167 1   
   170  170  171 1   
   171  170  172 1   
   172  173  174 1   
   173  173  175 1   
@<TRIPOS>SUBSTRUCTURE
     1 MOL         1 TEMP              0 ****  ****    0 ROOT
