@<TRIPOS>MOLECULE
MOL
  175   173     1     0     0
SMALL
resp


@<TRIPOS>ATOM
      1 C1          0.5620    3.3800    5.6350 c3        1 MOL     -0.394330
      2 C2         -0.1080    3.4680    4.2020 c         1 MOL      0.680312
      3 O1          0.5860    3.6330    3.1830 o         1 MOL     -0.529603
      4 H1         -0.0460    3.9290    6.3540 hc        1 MOL      0.097277
      5 H2          0.6310    2.3360    5.9410 hc        1 MOL      0.097277
      6 H3          1.5610    3.8140    5.5970 hc        1 MOL      0.097277
      7 N1         -1.4320    3.4900    4.1080 n         1 MOL     -0.635594
      8 C3         -2.1280    3.4550    2.6910 c3        1 MOL      0.190009
      9 C4         -2.0990    4.8150    1.8780 c         1 MOL      0.651935
     10 O2         -2.2440    5.9100    2.4340 o         1 MOL     -0.582239
     11 C5         -3.5470    2.9890    2.9920 c3        1 MOL     -0.406708
     12 C6         -4.1510    2.3690    1.7570 c         1 MOL      0.845928
     13 O3         -5.2190    1.8070    1.9630 o         1 MOL     -0.685421
     14 O4         -3.5820    2.2830    0.6250 o         1 MOL     -0.685421
     15 H4         -1.9910    3.4430    4.9350 hn        1 MOL      0.331036
     16 H5         -1.6330    2.6200    2.1960 h1        1 MOL      0.018466
     17 H6         -4.0700    3.8540    3.3870 hc        1 MOL      0.091616
     18 H7         -3.5220    2.3210    3.8590 hc        1 MOL      0.091616
     19 N2         -1.9890    4.6860    0.5400 n         1 MOL     -0.725648
     20 C7         -2.2420    5.6580   -0.5440 c3        1 MOL      0.501685
     21 C8         -3.2830    5.1950   -1.6290 c         1 MOL      0.404621
     22 O5         -3.5350    6.0180   -2.5100 o         1 MOL     -0.553379
     23 C9         -0.9930    6.3260   -1.1050 c3        1 MOL     -0.096867
     24 H8         -1.7580    3.7450    0.2650 hn        1 MOL      0.378547
     25 H9         -2.6920    6.5870   -0.1960 h1        1 MOL     -0.051521
     26 H10        -0.4050    6.8270   -0.3330 hc        1 MOL      0.014279
     27 H11        -0.3640    5.5250   -1.5100 hc        1 MOL      0.014279
     28 H12        -1.2200    7.0260   -1.9020 hc        1 MOL      0.014279
     29 N3         -3.9350    3.9970   -1.5760 n         1 MOL     -0.410004
     30 C10        -4.7650    3.4710   -2.6630 c3        1 MOL      0.165312
     31 C11        -6.1140    2.7490   -2.2550 c         1 MOL      0.370202
     32 O6         -7.0070    2.7050   -3.0790 o         1 MOL     -0.532157
     33 C12        -3.9000    2.5040   -3.5150 c3        1 MOL     -0.181500
     34 C13        -3.1770    1.5120   -2.6730 c         1 MOL      0.622410
     35 O7         -3.8260    0.6540   -2.0310 o         1 MOL     -0.635598
     36 O8         -1.9750    1.6030   -2.5460 o         1 MOL     -0.635598
     37 H13        -3.7390    3.4050   -0.7860 hn        1 MOL      0.171459
     38 H14        -4.9820    4.3110   -3.3130 h1        1 MOL      0.046415
     39 H15        -3.1310    3.0470   -4.0690 hc        1 MOL      0.042053
     40 H16        -4.6120    2.0290   -4.1830 hc        1 MOL      0.042053
     41 N4         -6.1870    2.3260   -1.0110 n         1 MOL     -0.154342
     42 C14        -7.2870    1.5250   -0.4870 c3        1 MOL     -0.272168
     43 C15        -7.3070    0.0010   -0.7440 c         1 MOL      0.544733
     44 O9         -8.3360   -0.6630   -0.4590 o         1 MOL     -0.613044
     45 H17        -5.5130    2.5980   -0.3150 hn        1 MOL      0.175396
     46 H18        -8.2200    1.8710   -0.9240 h1        1 MOL      0.125162
     47 H19        -7.2230    1.6480    0.5930 h1        1 MOL      0.125162
     48 N5         -6.1530   -0.6780   -1.1150 n         1 MOL     -0.121113
     49 C16        -6.2010   -2.0080   -1.6920 c3        1 MOL     -0.015525
     50 C17        -6.1390   -3.2390   -0.8140 c         1 MOL      0.415246
     51 O10        -6.0330   -4.3640   -1.2340 o         1 MOL     -0.528311
     52 C18        -5.2630   -2.1290   -2.8940 c3        1 MOL     -0.134534
     53 C19        -3.7910   -2.1640   -2.5180 c         1 MOL      0.483051
     54 N6         -2.8720   -2.1820   -3.4900 n         1 MOL     -0.604934
     55 O11        -3.4050   -2.1630   -1.3550 o         1 MOL     -0.344625
     56 H20        -5.2640   -0.2310   -1.3240 hn        1 MOL      0.083350
     57 H21        -7.2140   -2.0100   -2.0920 h1        1 MOL      0.081695
     58 H22        -5.4710   -1.2370   -3.4810 hc        1 MOL      0.051051
     59 H23        -5.5510   -2.9700   -3.5200 hc        1 MOL      0.051051
     60 H24        -3.2020   -2.0910   -4.4440 hn        1 MOL      0.315349
     61 H25        -1.9070   -2.0540   -3.2120 hn        1 MOL      0.315349
     62 N7         -6.1630   -3.0920    0.5010 n         1 MOL     -0.252136
     63 C20        -6.0690   -4.1620    1.4740 c3        1 MOL     -0.231154
     64 C21        -4.6990   -4.7240    1.6450 c         1 MOL      0.428344
     65 O12        -4.5890   -5.6710    2.5230 o         1 MOL     -0.575527
     66 H26        -6.2900   -2.1600    0.8640 hn        1 MOL      0.231811
     67 H27        -6.6390   -4.9870    1.0480 h1        1 MOL      0.129667
     68 H28        -6.5910   -3.8420    2.3740 h1        1 MOL      0.129667
     69 N8         -3.6710   -4.2170    0.9430 n         1 MOL      0.031186
     70 C22        -2.3070   -4.7430    0.9790 c3        1 MOL     -0.437291
     71 C23        -1.3710   -3.5510    1.1910 c         1 MOL      0.514002
     72 O13        -1.5150   -2.5310    0.5290 o         1 MOL     -0.471546
     73 C24        -1.8470   -5.5230   -0.2910 c3        1 MOL      0.598646
     74 C25        -2.6690   -6.8270   -0.2800 c3        1 MOL     -0.542856
     75 O14        -2.2230   -4.8610   -1.4810 oh        1 MOL     -0.599947
     76 H29        -3.7060   -3.3370    0.4440 hn        1 MOL      0.137473
     77 H30        -2.2400   -5.4110    1.8370 h1        1 MOL      0.138646
     78 H31        -0.7830   -5.7290   -0.3480 h1        1 MOL     -0.021180
     79 H32        -2.3690   -3.9240   -1.3410 ho        1 MOL      0.282157
     80 H33        -3.7150   -6.5390   -0.4060 hc        1 MOL      0.132036
     81 H34        -2.4190   -7.4110   -1.1630 hc        1 MOL      0.132036
     82 H35        -2.4070   -7.3640    0.6260 hc        1 MOL      0.132036
     83 N9         -0.3460   -3.7040    2.0640 n         1 MOL     -0.509911
     84 C26         0.9090   -3.0240    1.8580 c3        1 MOL      0.020801
     85 C27         1.4510   -3.2330    0.4200 c         1 MOL      0.600916
     86 O15         1.5720   -4.3560   -0.0620 o         1 MOL     -0.568566
     87 C28         1.9370   -3.1520    3.0560 c3        1 MOL      0.081148
     88 C29         1.5870   -2.3140    4.3220 c3        1 MOL      0.112464
     89 C30         3.4030   -2.9440    2.5370 c3        1 MOL     -0.126131
     90 C31         2.4880   -2.4530    5.5270 c3        1 MOL     -0.264687
     91 H36        -0.3320   -4.5360    2.6270 hn        1 MOL      0.298773
     92 H37         0.6040   -1.9830    1.9610 h1        1 MOL      0.027529
     93 H38         1.9610   -4.2150    3.3040 hc        1 MOL     -0.016190
     94 H39         0.5770   -2.6310    4.5910 hc        1 MOL     -0.009353
     95 H40         1.4940   -1.2710    4.0400 hc        1 MOL     -0.009353
     96 H41         3.3740   -2.0030    1.9850 hc        1 MOL      0.001145
     97 H42         4.1520   -2.8060    3.3230 hc        1 MOL      0.001145
     98 H43         3.6930   -3.6440    1.7630 hc        1 MOL      0.001145
     99 H44         3.5340   -2.3050    5.2430 hc        1 MOL      0.061293
    100 H45         2.1850   -1.6500    6.1950 hc        1 MOL      0.061293
    101 H46         2.2720   -3.4010    6.0190 hc        1 MOL      0.061293
    102 N10         1.7690   -2.0860   -0.1950 n         1 MOL     -0.245081
    103 C32         2.6450   -1.9800   -1.3930 c3        1 MOL      0.052440
    104 C33         4.1300   -1.4800   -1.0480 c         1 MOL      0.300952
    105 O16         4.3000   -1.0710    0.0860 o         1 MOL     -0.124068
    106 C34         1.8860   -0.9920   -2.3290 c3        1 MOL     -0.236530
    107 C35         0.3850   -1.3070   -2.6440 c         1 MOL      0.687277
    108 O17        -0.5760   -0.8610   -1.9260 o         1 MOL     -0.659699
    109 O18         0.1310   -1.8620   -3.7610 o         1 MOL     -0.659699
    110 H47         1.7340   -1.2660    0.3890 hn        1 MOL      0.103951
    111 H48         2.6530   -2.9780   -1.8370 h1        1 MOL      0.066191
    112 H49         2.3410   -1.0460   -3.3160 hc        1 MOL      0.058279
    113 H50         2.0780    0.0120   -1.9530 hc        1 MOL      0.058279
    114 N11         5.0570   -1.4050   -2.0200 n         1 MOL     -0.599957
    115 C36         6.4180   -1.0920   -1.7390 c3        1 MOL      0.457453
    116 C37         6.5600    0.3960   -1.2860 c         1 MOL      0.225397
    117 O19         7.2210    0.6340   -0.2460 o         1 MOL     -0.460978
    118 C38         7.3210   -1.5650   -2.8650 c3        1 MOL     -0.242290
    119 C39         8.7300   -1.3980   -2.3630 ca        1 MOL     -0.023966
    120 C40         9.2830   -2.4780   -1.6600 ca        1 MOL     -0.055344
    121 C41         9.5250   -0.2060   -2.5860 ca        1 MOL     -0.055344
    122 C42        10.6150   -2.4050   -1.2460 ca        1 MOL     -0.201638
    123 C43        10.8110   -0.1400   -2.1090 ca        1 MOL     -0.201638
    124 C44        11.3270   -1.2340   -1.3960 ca        1 MOL     -0.012655
    125 H51         4.7200   -1.7230   -2.9170 hn        1 MOL      0.329573
    126 H52         6.7050   -1.5970   -0.8210 h1        1 MOL      0.014327
    127 H53         7.1910   -0.9690   -3.7720 hc        1 MOL      0.080803
    128 H54         7.2070   -2.6170   -3.1420 hc        1 MOL      0.080803
    129 H55         8.7050   -3.3840   -1.5030 ha        1 MOL      0.097369
    130 H56         9.1360    0.5360   -3.2720 ha        1 MOL      0.097369
    131 H57        11.0300   -3.2760   -0.7600 ha        1 MOL      0.127352
    132 H58        11.4380    0.7320   -2.2510 ha        1 MOL      0.127352
    133 H59        12.3470   -1.2090   -1.0220 ha        1 MOL      0.074911
    134 N12         5.8330    1.3920   -1.8580 n         1 MOL     -0.020154
    135 C45         5.9010    2.7360   -1.3100 c3        1 MOL     -0.106172
    136 C46         5.3390    2.8410    0.1550 c         1 MOL      0.293421
    137 O20         5.2640    3.9180    0.7420 o         1 MOL     -0.519149
    138 C47         5.1160    3.6600   -2.2680 c3        1 MOL     -0.052858
    139 C48         5.1020    2.8410   -3.5500 c3        1 MOL      0.073834
    140 C49         5.0470    1.3930   -3.0700 c3        1 MOL     -0.043774
    141 H60         6.9150    3.1510   -1.3090 h1        1 MOL      0.117902
    142 H61         4.0870    3.8610   -1.9690 hc        1 MOL      0.055474
    143 H62         5.5990    4.6290   -2.4060 hc        1 MOL      0.055474
    144 H63         4.3300    3.1150   -4.2620 hc        1 MOL     -0.010688
    145 H64         6.1160    2.8940   -3.9600 hc        1 MOL     -0.010688
    146 H65         4.0240    1.1240   -2.8260 h1        1 MOL      0.047879
    147 H66         5.3570    0.7150   -3.8660 h1        1 MOL      0.047879
    148 N13         4.7230    1.8090    0.6820 n         1 MOL      0.088568
    149 C50         4.0960    1.7750    2.0040 c3        1 MOL     -0.008100
    150 C51         4.8270    0.9020    3.0330 c         1 MOL      0.374766
    151 O21         5.0940    1.3940    4.1490 o         1 MOL     -0.550808
    152 C52         2.6200    1.3930    1.9700 c3        1 MOL      0.047940
    153 C53         1.8280    1.8380    0.7350 c3        1 MOL     -0.190012
    154 C54         0.4240    1.3990    0.6860 c         1 MOL      0.610657
    155 O22         0.1640    0.2890    1.1590 o         1 MOL     -0.667585
    156 O23        -0.4860    2.1110    0.1070 o         1 MOL     -0.667585
    157 H67         4.9120    0.9050    0.2650 hn        1 MOL     -0.086336
    158 H68         4.1200    2.7980    2.3930 h1        1 MOL      0.075044
    159 H69         2.1630    1.6650    2.9210 hc        1 MOL      0.019764
    160 H70         2.6040    0.3060    1.9170 hc        1 MOL      0.019764
    161 H71         2.3260    1.3960   -0.1350 hc        1 MOL      0.078098
    162 H72         1.7920    2.9320    0.7270 hc        1 MOL      0.078098
    163 N14         5.3810   -0.1690    2.5130 n         1 MOL      0.057191
    164 C55         6.4880   -0.8740    3.0990 c3        1 MOL     -0.358558
    165 H73         6.9820   -1.4730    2.3340 h1        1 MOL      0.114135
    166 H74         7.1980   -0.1570    3.5120 h1        1 MOL      0.114135
    167 H75         6.1260   -1.5260    3.8930 h1        1 MOL      0.114135
    168 H76         5.1510   -0.4790    1.5760 hn        1 MOL      0.050387
    169 Ca1        -2.2130   -0.0090   -0.1100 Ca        1 MOL      1.676534
    170 O24        -4.2710   -0.7790    1.5020 oh        1 MOL     -0.813803
    171 H77        -4.9230   -0.1170    1.7120 ho        1 MOL      0.380057
    172 H78        -4.1500   -1.2690    2.3170 ho        1 MOL      0.380057
    173 O25        -1.7550   -0.0160    2.6250 oh        1 MOL     -0.813803
    174 H79        -1.6490    0.4600    3.4580 ho        1 MOL      0.380057
    175 H80        -0.9030    0.0720    2.1950 ho        1 MOL      0.380057
@<TRIPOS>BOND
     1    1    2 1   
     2    1    4 1   
     3    1    5 1   
     4    1    6 1   
     5    2    3 2   
     6    2    7 1   
     7    7    8 1   
     8    7   15 1   
     9    8    9 1   
    10    8   11 1   
    11    8   16 1   
    12    9   10 2   
    13    9   19 1   
    14   11   12 1   
    15   11   17 1   
    16   11   18 1   
    17   12   13 1   
    18   12   14 1   
    19   19   20 1   
    20   19   24 1   
    21   20   21 1   
    22   20   23 1   
    23   20   25 1   
    24   21   22 2   
    25   21   29 1   
    26   23   26 1   
    27   23   27 1   
    28   23   28 1   
    29   29   30 1   
    30   29   37 1   
    31   30   31 1   
    32   30   33 1   
    33   30   38 1   
    34   31   32 2   
    35   31   41 1   
    36   33   34 1   
    37   33   39 1   
    38   33   40 1   
    39   34   35 1   
    40   34   36 1   
    41   41   42 1   
    42   41   45 1   
    43   42   43 1   
    44   42   46 1   
    45   42   47 1   
    46   43   44 2   
    47   43   48 1   
    48   48   49 1   
    49   48   56 1   
    50   49   50 1   
    51   49   52 1   
    52   49   57 1   
    53   50   51 2   
    54   50   62 1   
    55   52   53 1   
    56   52   58 1   
    57   52   59 1   
    58   53   54 1   
    59   53   55 2   
    60   54   60 1   
    61   54   61 1   
    62   62   63 1   
    63   62   66 1   
    64   63   64 1   
    65   63   67 1   
    66   63   68 1   
    67   64   65 2   
    68   64   69 1   
    69   69   70 1   
    70   69   76 1   
    71   70   71 1   
    72   70   73 1   
    73   70   77 1   
    74   71   72 2   
    75   71   83 1   
    76   73   74 1   
    77   73   75 1   
    78   73   78 1   
    79   74   80 1   
    80   74   81 1   
    81   74   82 1   
    82   75   79 1   
    83   83   84 1   
    84   83   91 1   
    85   84   85 1   
    86   84   87 1   
    87   84   92 1   
    88   85   86 2   
    89   85  102 1   
    90   87   88 1   
    91   87   89 1   
    92   87   93 1   
    93   88   90 1   
    94   88   94 1   
    95   88   95 1   
    96   89   96 1   
    97   89   97 1   
    98   89   98 1   
    99   90   99 1   
   100   90  100 1   
   101   90  101 1   
   102  102  103 1   
   103  102  110 1   
   104  103  104 1   
   105  103  106 1   
   106  103  111 1   
   107  104  105 2   
   108  104  114 1   
   109  106  107 1   
   110  106  112 1   
   111  106  113 1   
   112  107  108 1   
   113  107  109 1   
   114  114  115 1   
   115  114  125 1   
   116  115  116 1   
   117  115  118 1   
   118  115  126 1   
   119  116  117 2   
   120  116  134 1   
   121  118  119 1   
   122  118  127 1   
   123  118  128 1   
   124  119  120 ar  
   125  119  121 ar  
   126  120  122 ar  
   127  120  129 1   
   128  121  123 ar  
   129  121  130 1   
   130  122  124 ar  
   131  122  131 1   
   132  123  124 ar  
   133  123  132 1   
   134  124  133 1   
   135  134  135 1   
   136  134  140 1   
   137  135  136 1   
   138  135  138 1   
   139  135  141 1   
   140  136  137 2   
   141  136  148 1   
   142  138  139 1   
   143  138  142 1   
   144  138  143 1   
   145  139  140 1   
   146  139  144 1   
   147  139  145 1   
   148  140  146 1   
   149  140  147 1   
   150  148  149 1   
   151  148  157 1   
   152  149  150 1   
   153  149  152 1   
   154  149  158 1   
   155  150  151 2   
   156  150  163 1   
   157  152  153 1   
   158  152  159 1   
   159  152  160 1   
   160  153  154 1   
   161  153  161 1   
   162  153  162 1   
   163  154  155 1   
   164  154  156 1   
   165  163  164 1   
   166  163  168 1   
   167  164  165 1   
   168  164  166 1   
   169  164  167 1   
   170  170  171 1   
   171  170  172 1   
   172  173  174 1   
   173  173  175 1   
@<TRIPOS>SUBSTRUCTURE
     1 MOL         1 TEMP              0 ****  ****    0 ROOT
