@<TRIPOS>MOLECULE
MOL
  172   171     1     0     0
SMALL
resp


@<TRIPOS>ATOM
      1 C1          0.2900    3.3460    5.3150 c3        1 MOL     -0.274089
      2 C2         -0.4360    3.1450    3.9840 c         1 MOL      0.713415
      3 O1         -0.0200    3.8390    3.0670 o         1 MOL     -0.600883
      4 H1          1.3090    2.9700    5.2320 hc        1 MOL      0.060503
      5 H2          0.3140    4.4070    5.5600 hc        1 MOL      0.060503
      6 H3         -0.2340    2.8020    6.1000 hc        1 MOL      0.060503
      7 N1         -1.3950    2.2190    3.8210 n         1 MOL     -0.637218
      8 C3         -2.1750    2.0900    2.5540 c3        1 MOL      0.239990
      9 C4         -2.6900    3.4840    2.0380 c         1 MOL      0.474429
     10 O2         -3.5480    4.1120    2.5990 o         1 MOL     -0.573905
     11 C5         -3.3280    1.1940    2.8580 c3        1 MOL     -0.310210
     12 C6         -4.1570    0.8700    1.5990 c         1 MOL      0.681023
     13 O3         -5.2420    0.1820    1.6410 o         1 MOL     -0.710174
     14 O4         -3.6340    1.0850    0.5330 o         1 MOL     -0.710174
     15 H4         -1.6900    1.6980    4.6390 hn        1 MOL      0.320426
     16 H5         -1.4640    1.6770    1.8350 h1        1 MOL      0.047195
     17 H6         -3.9620    1.6900    3.5870 hc        1 MOL      0.073091
     18 H7         -2.9380    0.2750    3.2770 hc        1 MOL      0.073091
     19 N2         -2.1140    3.9650    0.9230 n         1 MOL     -0.203063
     20 C7         -2.4610    5.2200    0.1990 c3        1 MOL     -0.005622
     21 C8         -3.3250    5.0250   -1.0600 c         1 MOL      0.619094
     22 O5         -3.4060    5.9200   -1.8850 o         1 MOL     -0.595824
     23 C9         -1.2210    6.0570    0.1060 c3        1 MOL     -0.106378
     24 H8         -1.4210    3.3950    0.4540 hn        1 MOL      0.290164
     25 H9         -3.0730    5.7750    0.9100 h1        1 MOL      0.052352
     26 H10        -0.6770    6.2910    1.0220 hc        1 MOL      0.026860
     27 H11        -0.4610    5.5040   -0.4470 hc        1 MOL      0.026860
     28 H12        -1.3990    7.0340   -0.3270 hc        1 MOL      0.026860
     29 N3         -4.0510    3.9070   -1.1120 n         1 MOL     -0.425885
     30 C10        -5.0190    3.6820   -2.2560 c3        1 MOL      0.018518
     31 C11        -6.2100    2.8960   -1.6500 c         1 MOL      0.587039
     32 O6         -7.1680    2.7730   -2.3690 o         1 MOL     -0.565877
     33 C12        -4.3160    2.9350   -3.4250 c3        1 MOL      0.027125
     34 C13        -3.6920    1.5870   -3.1550 c         1 MOL      0.694170
     35 O7         -4.1540    0.7950   -2.3030 o         1 MOL     -0.713902
     36 O8         -2.6120    1.3760   -3.6620 o         1 MOL     -0.713902
     37 H13        -3.8530    3.2710   -0.3530 hn        1 MOL      0.066562
     38 H14        -5.4540    4.6050   -2.6250 h1        1 MOL      0.076759
     39 H15        -3.5630    3.5720   -3.8950 hc        1 MOL     -0.009902
     40 H16        -5.1100    2.8300   -4.1570 hc        1 MOL     -0.009902
     41 N4         -6.2520    2.3470   -0.4370 n         1 MOL     -0.512276
     42 C14        -7.4840    1.8560    0.1550 c3        1 MOL     -0.098024
     43 C15        -7.9370    0.4700   -0.2960 c         1 MOL      0.456580
     44 O9         -9.1370    0.1260   -0.2090 o         1 MOL     -0.606212
     45 H17        -5.3970    2.1360    0.0630 hn        1 MOL      0.440149
     46 H18        -8.2240    2.6450    0.0570 h1        1 MOL      0.091343
     47 H19        -7.3130    1.7600    1.2330 h1        1 MOL      0.091343
     48 N5         -6.9850   -0.2730   -0.8300 n         1 MOL     -0.041280
     49 C16        -7.1960   -1.6340   -1.3640 c3        1 MOL     -0.197386
     50 C17        -6.9220   -2.7640   -0.3510 c         1 MOL      0.511987
     51 O10        -7.2200   -3.9350   -0.5680 o         1 MOL     -0.558271
     52 C18        -6.3010   -1.7650   -2.6270 c3        1 MOL     -0.053028
     53 C19        -4.7810   -2.0940   -2.3450 c         1 MOL      0.501428
     54 N6         -4.1690   -2.8820   -3.2320 n         1 MOL     -0.645799
     55 O11        -4.1290   -1.8610   -1.3410 o         1 MOL     -0.526365
     56 H20        -6.0790    0.1710   -0.8270 hn        1 MOL      0.121863
     57 H21        -8.2100   -1.7430   -1.7340 h1        1 MOL      0.141600
     58 H22        -6.3330   -0.8580   -3.2110 hc        1 MOL      0.045160
     59 H23        -6.7090   -2.5910   -3.2090 hc        1 MOL      0.045160
     60 H24        -4.6220   -3.1320   -4.0990 hn        1 MOL      0.307310
     61 H25        -3.1770   -3.0610   -3.1470 hn        1 MOL      0.307310
     62 N7         -6.5100   -2.3740    0.8690 n         1 MOL     -0.248728
     63 C20        -6.3400   -3.3280    1.9500 c3        1 MOL     -0.086361
     64 C21        -4.9800   -3.9600    1.9680 c         1 MOL      0.557287
     65 O12        -4.8240   -4.9360    2.7400 o         1 MOL     -0.604523
     66 H26        -6.3420   -1.3900    1.0380 hn        1 MOL      0.252612
     67 H27        -7.0920   -4.1130    1.9720 h1        1 MOL      0.078154
     68 H28        -6.4520   -2.7550    2.8690 h1        1 MOL      0.078154
     69 N8         -3.9170   -3.5300    1.2360 n         1 MOL     -0.263740
     70 C22        -2.5680   -4.1060    1.3240 c3        1 MOL     -0.100201
     71 C23        -1.4530   -3.0960    1.3460 c         1 MOL      0.666773
     72 O13        -1.7140   -1.9010    0.9970 o         1 MOL     -0.606184
     73 C24        -2.2270   -5.0000    0.1310 c3        1 MOL      0.331339
     74 C25        -2.9090   -6.3160    0.1250 c3        1 MOL     -0.503778
     75 O14        -2.7190   -4.4730   -1.0380 oh        1 MOL     -0.542803
     76 H29        -4.1720   -2.8350    0.5510 hn        1 MOL      0.216254
     77 H30        -2.4740   -4.6500    2.2600 h1        1 MOL      0.105346
     78 H31        -1.1650   -5.0900   -0.1190 h1        1 MOL      0.041631
     79 H32        -3.2950   -5.1210   -1.4550 ho        1 MOL      0.364550
     80 H33        -2.5490   -6.8200   -0.7810 hc        1 MOL      0.129094
     81 H34        -2.5380   -6.9090    0.9630 hc        1 MOL      0.129094
     82 H35        -3.9950   -6.2190    0.0640 hc        1 MOL      0.129094
     83 N9         -0.2190   -3.4570    1.7110 n         1 MOL     -0.721388
     84 C26         1.0000   -2.6010    1.6550 c3        1 MOL      0.044358
     85 C27         1.6340   -2.7770    0.2610 c         1 MOL      0.617370
     86 O15         1.8230   -3.8750   -0.1880 o         1 MOL     -0.613169
     87 C28         1.8760   -2.9230    2.8300 c3        1 MOL      0.178417
     88 C29         1.1670   -2.7590    4.2320 c3        1 MOL      0.039226
     89 C30         3.1530   -2.0970    2.7130 c3        1 MOL     -0.018034
     90 C31         2.0570   -2.9070    5.4750 c3        1 MOL     -0.217333
     91 H36        -0.0880   -4.3990    2.0350 hn        1 MOL      0.324977
     92 H37         0.7560   -1.5370    1.7140 h1        1 MOL      0.100018
     93 H38         2.2450   -3.9330    2.7040 hc        1 MOL     -0.042872
     94 H39         0.4620   -3.5850    4.3380 hc        1 MOL      0.019954
     95 H40         0.6470   -1.8170    4.3700 hc        1 MOL      0.019954
     96 H41         3.7220   -2.2570    1.8020 hc        1 MOL     -0.021863
     97 H42         2.8640   -1.0510    2.7260 hc        1 MOL     -0.021863
     98 H43         3.8910   -2.3280    3.4780 hc        1 MOL     -0.021863
     99 H44         1.3200   -2.6290    6.2300 hc        1 MOL      0.044588
    100 H45         2.3730   -3.9340    5.6460 hc        1 MOL      0.044588
    101 H46         2.8290   -2.1490    5.6020 hc        1 MOL      0.044588
    102 N10         2.0790   -1.7290   -0.3910 n         1 MOL     -0.222922
    103 C32         3.0320   -1.7230   -1.4640 c3        1 MOL      0.071060
    104 C33         4.4030   -1.3230   -1.0290 c         1 MOL      0.411011
    105 O16         4.5320   -0.6780   -0.0230 o         1 MOL     -0.272403
    106 C34         2.6290   -0.7570   -2.6400 c3        1 MOL     -0.387670
    107 C35         1.1370   -0.9410   -3.1210 c         1 MOL      0.823654
    108 O17         0.1680   -0.2990   -2.6680 o         1 MOL     -0.704298
    109 O18         1.0180   -1.7560   -4.0460 o         1 MOL     -0.704298
    110 H47         1.5840   -0.9320   -0.0270 hn        1 MOL      0.043874
    111 H48         3.1310   -2.7150   -1.8960 h1        1 MOL      0.056126
    112 H49         3.2940   -0.9790   -3.4740 hc        1 MOL      0.100536
    113 H50         2.7230    0.2630   -2.2490 hc        1 MOL      0.100536
    114 N11         5.4380   -1.6920   -1.8640 n         1 MOL     -0.580588
    115 C36         6.7860   -1.2680   -1.4600 c3        1 MOL      0.198039
    116 C37         6.9720    0.2490   -1.0000 c         1 MOL      0.355134
    117 O19         7.4900    0.4190    0.1110 o         1 MOL     -0.491329
    118 C38         7.9000   -1.6920   -2.4750 c3        1 MOL     -0.120877
    119 C39         9.2910   -1.6910   -1.8840 ca        1 MOL      0.020622
    120 C40         9.6640   -2.7400   -0.9910 ca        1 MOL     -0.095243
    121 C41        10.2410   -0.6890   -2.1620 ca        1 MOL     -0.095243
    122 C42        10.9350   -2.8040   -0.4770 ca        1 MOL     -0.192041
    123 C43        11.4870   -0.6440   -1.5980 ca        1 MOL     -0.192041
    124 C44        11.7990   -1.6820   -0.7030 ca        1 MOL     -0.019478
    125 H51         5.2960   -2.2160   -2.7100 hn        1 MOL      0.344184
    126 H52         6.9970   -1.8660   -0.5750 h1        1 MOL      0.060646
    127 H53         7.7930   -0.9260   -3.2400 hc        1 MOL      0.045723
    128 H54         7.6930   -2.6730   -2.9000 hc        1 MOL      0.045723
    129 H55         8.9860   -3.5130   -0.6620 ha        1 MOL      0.109526
    130 H56         9.8670    0.1900   -2.6760 ha        1 MOL      0.109526
    131 H57        11.2520   -3.5310    0.2620 ha        1 MOL      0.133361
    132 H58        12.1520    0.1890   -1.7730 ha        1 MOL      0.133361
    133 H59        12.7790   -1.6770   -0.2540 ha        1 MOL      0.068480
    134 N12         6.3990    1.3550   -1.5710 n         1 MOL     -0.087264
    135 C45         6.5770    2.6870   -0.9630 c3        1 MOL     -0.002030
    136 C46         5.7720    2.9050    0.2920 c         1 MOL      0.348246
    137 O20         6.1490    3.6410    1.1960 o         1 MOL     -0.530157
    138 C47         6.1970    3.5840   -2.0890 c3        1 MOL     -0.106057
    139 C48         5.3570    2.7770   -3.0560 c3        1 MOL     -0.051434
    140 C49         5.7590    1.3280   -2.8750 c3        1 MOL      0.048282
    141 H60         7.6470    2.7750   -0.7570 h1        1 MOL      0.080044
    142 H61         5.6380    4.4400   -1.7040 hc        1 MOL      0.052650
    143 H62         7.0820    4.0770   -2.5000 hc        1 MOL      0.052650
    144 H63         4.3610    2.8430   -2.6370 hc        1 MOL      0.040430
    145 H64         5.4070    3.1150   -4.0860 hc        1 MOL      0.040430
    146 H65         4.9550    0.6130   -3.0370 h1        1 MOL      0.000699
    147 H66         6.5330    1.2020   -3.6350 h1        1 MOL      0.000699
    148 N13         4.6830    2.2420    0.4660 n         1 MOL     -0.130472
    149 C50         3.9060    2.3090    1.6770 c3        1 MOL     -0.179260
    150 C51         4.6570    1.6050    2.8030 c         1 MOL      0.523401
    151 O21         4.6290    2.0490    3.9150 o         1 MOL     -0.565785
    152 C52         2.4670    1.7230    1.5990 c3        1 MOL      0.149758
    153 C53         1.6330    2.3340    0.4070 c3        1 MOL      0.117365
    154 C54         0.3150    1.6710    0.0880 c         1 MOL      0.443820
    155 O22         0.2040    0.4380    0.3840 o         1 MOL     -0.643015
    156 O23        -0.6370    2.2650   -0.5470 o         1 MOL     -0.643015
    157 H67         4.4830    1.5580   -0.2460 hn        1 MOL      0.196024
    158 H68         3.7570    3.3500    1.9800 h1        1 MOL      0.130299
    159 H69         1.9050    1.9450    2.5130 hc        1 MOL     -0.019155
    160 H70         2.6040    0.6420    1.4860 hc        1 MOL     -0.019155
    161 H71         2.2330    2.4850   -0.4890 hc        1 MOL     -0.020796
    162 H72         1.4640    3.3610    0.7090 hc        1 MOL     -0.020796
    163 N14         5.4740    0.5420    2.5240 n         1 MOL     -0.024707
    164 C55         6.5170   -0.0860    3.4510 c3        1 MOL     -0.271367
    165 H73         7.5000    0.3250    3.2210 h1        1 MOL      0.098773
    166 H74         6.2640    0.1370    4.4870 h1        1 MOL      0.098773
    167 H75         6.5310   -1.1660    3.3050 h1        1 MOL      0.098773
    168 H76         5.5540    0.2300    1.5690 hn        1 MOL      0.025990
    169 Ca1        -1.9980   -0.1610   -1.0630 Ca        1 MOL      1.768733
    170 O24        -1.4110   -2.4960   -2.3910 oh        1 MOL     -0.850711
    171 H77        -0.6260   -2.7740   -2.8480 ho        1 MOL      0.400856
    172 H78        -1.6880   -3.2600   -1.8890 ho        1 MOL      0.400856
@<TRIPOS>BOND
     1    1    2 1   
     2    1    4 1   
     3    1    5 1   
     4    1    6 1   
     5    2    3 2   
     6    2    7 1   
     7    7    8 1   
     8    7   15 1   
     9    8    9 1   
    10    8   11 1   
    11    8   16 1   
    12    9   10 2   
    13    9   19 1   
    14   11   12 1   
    15   11   17 1   
    16   11   18 1   
    17   12   13 1   
    18   12   14 1   
    19   19   20 1   
    20   19   24 1   
    21   20   21 1   
    22   20   23 1   
    23   20   25 1   
    24   21   22 2   
    25   21   29 1   
    26   23   26 1   
    27   23   27 1   
    28   23   28 1   
    29   29   30 1   
    30   29   37 1   
    31   30   31 1   
    32   30   33 1   
    33   30   38 1   
    34   31   32 2   
    35   31   41 1   
    36   33   34 1   
    37   33   39 1   
    38   33   40 1   
    39   34   35 1   
    40   34   36 1   
    41   41   42 1   
    42   41   45 1   
    43   42   43 1   
    44   42   46 1   
    45   42   47 1   
    46   43   44 2   
    47   43   48 1   
    48   48   49 1   
    49   48   56 1   
    50   49   50 1   
    51   49   52 1   
    52   49   57 1   
    53   50   51 2   
    54   50   62 1   
    55   52   53 1   
    56   52   58 1   
    57   52   59 1   
    58   53   54 1   
    59   53   55 2   
    60   54   60 1   
    61   54   61 1   
    62   62   63 1   
    63   62   66 1   
    64   63   64 1   
    65   63   67 1   
    66   63   68 1   
    67   64   65 2   
    68   64   69 1   
    69   69   70 1   
    70   69   76 1   
    71   70   71 1   
    72   70   73 1   
    73   70   77 1   
    74   71   72 2   
    75   71   83 1   
    76   73   74 1   
    77   73   75 1   
    78   73   78 1   
    79   74   80 1   
    80   74   81 1   
    81   74   82 1   
    82   75   79 1   
    83   83   84 1   
    84   83   91 1   
    85   84   85 1   
    86   84   87 1   
    87   84   92 1   
    88   85   86 2   
    89   85  102 1   
    90   87   88 1   
    91   87   89 1   
    92   87   93 1   
    93   88   90 1   
    94   88   94 1   
    95   88   95 1   
    96   89   96 1   
    97   89   97 1   
    98   89   98 1   
    99   90   99 1   
   100   90  100 1   
   101   90  101 1   
   102  102  103 1   
   103  102  110 1   
   104  103  104 1   
   105  103  106 1   
   106  103  111 1   
   107  104  105 2   
   108  104  114 1   
   109  106  107 1   
   110  106  112 1   
   111  106  113 1   
   112  107  108 1   
   113  107  109 1   
   114  114  115 1   
   115  114  125 1   
   116  115  116 1   
   117  115  118 1   
   118  115  126 1   
   119  116  117 2   
   120  116  134 1   
   121  118  119 1   
   122  118  127 1   
   123  118  128 1   
   124  119  120 ar  
   125  119  121 ar  
   126  120  122 ar  
   127  120  129 1   
   128  121  123 ar  
   129  121  130 1   
   130  122  124 ar  
   131  122  131 1   
   132  123  124 ar  
   133  123  132 1   
   134  124  133 1   
   135  134  135 1   
   136  134  140 1   
   137  135  136 1   
   138  135  138 1   
   139  135  141 1   
   140  136  137 2   
   141  136  148 1   
   142  138  139 1   
   143  138  142 1   
   144  138  143 1   
   145  139  140 1   
   146  139  144 1   
   147  139  145 1   
   148  140  146 1   
   149  140  147 1   
   150  148  149 1   
   151  148  157 1   
   152  149  150 1   
   153  149  152 1   
   154  149  158 1   
   155  150  151 2   
   156  150  163 1   
   157  152  153 1   
   158  152  159 1   
   159  152  160 1   
   160  153  154 1   
   161  153  161 1   
   162  153  162 1   
   163  154  155 1   
   164  154  156 1   
   165  163  164 1   
   166  163  168 1   
   167  164  165 1   
   168  164  166 1   
   169  164  167 1   
   170  170  171 1   
   171  170  172 1   
@<TRIPOS>SUBSTRUCTURE
     1 MOL         1 TEMP              0 ****  ****    0 ROOT
