@<TRIPOS>MOLECULE
MOL
  189   185     1     0     0
SMALL
resp


@<TRIPOS>ATOM
      1 C1          0.4600   -4.4090    5.5200 c3        1 MOL     -0.385971
      2 C2          1.1240   -3.6640    4.3390 c         1 MOL      0.714266
      3 O1          1.3010   -2.4300    4.3180 o         1 MOL     -0.606615
      4 H1         -0.5630   -4.0540    5.6440 hc        1 MOL      0.101212
      5 H2          0.4500   -5.4790    5.3160 hc        1 MOL      0.101212
      6 H3          1.0230   -4.2180    6.4340 hc        1 MOL      0.101212
      7 N1          1.7840   -4.4320    3.4590 n         1 MOL     -0.589576
      8 C3          2.5800   -3.7700    2.2920 c3        1 MOL      0.089435
      9 C4          2.8430   -4.7360    1.0710 c         1 MOL      0.572326
     10 O2          3.3140   -5.8420    1.2950 o         1 MOL     -0.589881
     11 C5          3.9480   -3.3480    2.8770 c3        1 MOL     -0.175995
     12 C6          4.6290   -2.2830    2.0730 c         1 MOL      0.709953
     13 O3          5.7420   -1.8440    2.5110 o         1 MOL     -0.696595
     14 O4          4.0250   -1.8850    1.0400 o         1 MOL     -0.696595
     15 H4          1.6140   -5.4300    3.5280 hn        1 MOL      0.324563
     16 H5          2.0480   -2.8960    1.9110 h1        1 MOL      0.004974
     17 H6          4.7110   -4.1260    2.9460 hc        1 MOL      0.065780
     18 H7          3.8340   -2.9830    3.9010 hc        1 MOL      0.065780
     19 N2          2.4300   -4.3380   -0.1430 n         1 MOL     -0.080054
     20 C7          2.3340   -5.1880   -1.3630 c3        1 MOL     -0.191198
     21 C8          3.3070   -4.7690   -2.4170 c         1 MOL      0.564668
     22 O5          3.4800   -5.5090   -3.3880 o         1 MOL     -0.582572
     23 C9          0.9580   -5.3960   -1.9520 c3        1 MOL      0.201210
     24 C10         0.0610   -4.1610   -2.2420 c3        1 MOL     -0.025129
     25 C11         0.1210   -6.2690   -0.9400 c3        1 MOL     -0.192888
     26 C12         0.6870   -3.0660   -3.1750 c3        1 MOL     -0.143114
     27 H8          2.0160   -3.4230   -0.1810 hn        1 MOL      0.084997
     28 H9          2.5960   -6.2290   -1.1680 h1        1 MOL      0.106791
     29 H10         1.0070   -5.9940   -2.8570 hc        1 MOL     -0.000173
     30 H11        -0.2670   -3.6650   -1.3200 hc        1 MOL      0.014575
     31 H12        -0.8620   -4.5550   -2.6600 hc        1 MOL      0.014575
     32 H13         0.5580   -7.2530   -0.7560 hc        1 MOL      0.030153
     33 H14         0.1370   -5.8020    0.0500 hc        1 MOL      0.030153
     34 H15        -0.9030   -6.3580   -1.2990 hc        1 MOL      0.030153
     35 H16         0.8990   -3.5460   -4.1400 hc        1 MOL      0.045895
     36 H17        -0.0270   -2.2640   -3.3810 hc        1 MOL      0.045895
     37 H18         1.5970   -2.6820   -2.7100 hc        1 MOL      0.045895
     38 N3          3.9760   -3.6150   -2.2620 n         1 MOL     -0.331004
     39 C13         5.0010   -3.1120   -3.1840 c3        1 MOL      0.050864
     40 C14         6.2170   -2.3780   -2.5470 c         1 MOL      0.332355
     41 O6          7.2740   -2.1670   -3.1660 o         1 MOL     -0.497794
     42 C15         4.3420   -2.1350   -4.1340 c3        1 MOL     -0.217105
     43 C16         3.5290   -1.0260   -3.3910 c         1 MOL      0.744428
     44 O7          3.5830   -0.8730   -2.1150 o         1 MOL     -0.672932
     45 O8          2.7390   -0.4180   -4.0810 o         1 MOL     -0.672932
     46 H19         3.7050   -2.9740   -1.5330 hn        1 MOL     -0.010942
     47 H20         5.4830   -3.8250   -3.8670 h1        1 MOL      0.108072
     48 H21         3.7320   -2.6940   -4.8520 hc        1 MOL      0.063756
     49 H22         5.1130   -1.5770   -4.6540 hc        1 MOL      0.063756
     50 N4          6.0910   -2.0540   -1.1940 n         1 MOL     -0.144805
     51 C17         7.1580   -1.5180   -0.4000 c3        1 MOL     -0.335629
     52 C18         7.5430   -0.0920   -0.8540 c         1 MOL      0.507457
     53 O9          8.7000    0.3340   -0.9010 o         1 MOL     -0.606742
     54 H23         5.1860   -2.1810   -0.7810 hn        1 MOL      0.212141
     55 H24         7.9810   -2.2160   -0.5390 h1        1 MOL      0.143965
     56 H25         6.8900   -1.4810    0.6590 h1        1 MOL      0.143965
     57 N5          6.5470    0.6990   -1.2300 n         1 MOL     -0.196697
     58 C19         6.7360    2.0640   -1.6790 c3        1 MOL     -0.194407
     59 C20         6.7530    3.1610   -0.5760 c         1 MOL      0.439220
     60 O10         6.6350    4.3680   -0.8860 o         1 MOL     -0.484949
     61 C21         5.5990    2.3400   -2.6820 c3        1 MOL     -0.147306
     62 C22         4.1460    2.3870   -2.1510 c         1 MOL      0.662736
     63 O11         3.9520    1.8940   -0.9980 o         1 MOL     -0.674024
     64 O12         3.1890    2.7880   -2.8110 o         1 MOL     -0.674024
     65 H26         5.5950    0.4110   -1.0690 hn        1 MOL      0.328693
     66 H27         7.7200    2.1090   -2.1570 h1        1 MOL      0.166275
     67 H28         5.5810    1.6000   -3.4730 hc        1 MOL      0.054336
     68 H29         5.8610    3.3000   -3.1290 hc        1 MOL      0.054336
     69 N6          6.7310    2.7580    0.7110 n         1 MOL     -0.247059
     70 C23         6.7560    3.7020    1.8620 c3        1 MOL     -0.023223
     71 C24         5.5200    4.5420    2.0850 c         1 MOL      0.505751
     72 O13         5.5330    5.6770    2.6210 o         1 MOL     -0.580133
     73 H30         6.4430    1.8080    0.8820 hn        1 MOL      0.203033
     74 H31         7.5490    4.4380    1.7220 h1        1 MOL      0.044226
     75 H32         7.0350    3.1210    2.7430 h1        1 MOL      0.044226
     76 N7          4.3520    4.0390    1.7860 n         1 MOL     -0.179471
     77 C25         3.0300    4.6380    1.9130 c3        1 MOL      0.040972
     78 C26         1.9490    3.5780    1.8090 c         1 MOL      0.462916
     79 O14         2.1550    2.4040    1.5570 o         1 MOL     -0.483324
     80 C27         2.7920    5.6340    0.7200 c3        1 MOL     -0.355152
     81 C28         2.8400    5.0380   -0.7290 c3        1 MOL      0.029314
     82 C29         3.0510    6.0440   -1.8300 c         1 MOL      0.640112
     83 N8          3.1230    5.6200   -3.0650 n         1 MOL     -0.774885
     84 O15         3.2420    7.2180   -1.5770 o         1 MOL     -0.608041
     85 H33         4.2800    3.1150    1.3790 hn        1 MOL      0.075377
     86 H34         2.8380    5.0050    2.9180 h1        1 MOL      0.052852
     87 H35         3.5370    6.4290    0.8150 hc        1 MOL      0.108795
     88 H36         1.8300    6.1330    0.8720 hc        1 MOL      0.108795
     89 H37         2.0140    4.3730   -0.9520 hc        1 MOL      0.039775
     90 H38         3.7310    4.4130   -0.6910 hc        1 MOL      0.039775
     91 H39         3.0350    4.6270   -3.2240 hn        1 MOL      0.343715
     92 H40         3.1640    6.2460   -3.8580 hn        1 MOL      0.343715
     93 N9          0.6470    3.9890    2.0570 n         1 MOL     -0.297258
     94 C30        -0.5270    3.1000    2.0990 c3        1 MOL     -0.029170
     95 C31        -1.6350    3.3390    1.0600 c         1 MOL      0.394612
     96 O16        -2.1060    4.4470    1.0310 o         1 MOL     -0.553942
     97 C32        -1.1570    3.3070    3.4950 c3        1 MOL      0.282111
     98 C33        -2.1850    2.1880    3.5760 c3        1 MOL     -0.391667
     99 C34        -0.1810    3.2030    4.7040 c3        1 MOL     -0.391667
    100 H41         0.5100    4.9380    2.3870 hn        1 MOL      0.232621
    101 H42        -0.1620    2.0760    2.0690 h1        1 MOL      0.036922
    102 H43        -1.7350    4.2300    3.5760 hc        1 MOL     -0.009046
    103 H44        -1.7130    1.2080    3.4460 hc        1 MOL      0.088322
    104 H45        -2.5140    2.0940    4.6150 hc        1 MOL      0.088322
    105 H46        -3.0340    2.3600    2.9200 hc        1 MOL      0.088322
    106 H47         0.3360    4.1370    4.9200 hc        1 MOL      0.088322
    107 H48        -0.7300    3.0100    5.6200 hc        1 MOL      0.088322
    108 H49         0.5840    2.4480    4.5060 hc        1 MOL      0.088322
    109 N10        -2.0470    2.2630    0.3720 n         1 MOL     -0.074437
    110 C35        -3.1580    2.3410   -0.5580 c3        1 MOL      0.148579
    111 C36        -4.4970    1.8090    0.1120 c         1 MOL      0.409147
    112 O17        -4.3870    1.2790    1.2130 o         1 MOL     -0.347936
    113 C37        -2.7110    1.6500   -1.8760 c3        1 MOL     -0.301518
    114 C38        -2.8890    0.2270   -2.0590 c         1 MOL      0.592317
    115 N11        -1.8130   -0.5550   -2.1230 n         1 MOL     -0.682548
    116 O18        -3.9880   -0.2900   -2.0670 o         1 MOL     -0.571612
    117 H50        -1.5150    1.4040    0.4010 hn        1 MOL      0.141131
    118 H51        -3.2350    3.3770   -0.9110 h1        1 MOL      0.018002
    119 H52        -1.6510    1.8690   -2.0470 hc        1 MOL      0.092282
    120 H53        -3.3690    2.0760   -2.6310 hc        1 MOL      0.092282
    121 H54        -0.8890   -0.1600   -2.0250 hn        1 MOL      0.346132
    122 H55        -2.0070   -1.5320   -2.2760 hn        1 MOL      0.346132
    123 N12        -5.6640    1.9250   -0.5860 n         1 MOL     -0.628384
    124 C39        -6.9880    1.2650   -0.1700 c3        1 MOL      0.228814
    125 C40        -6.9280   -0.1960    0.2130 c         1 MOL      0.502242
    126 O19        -7.5460   -0.5200    1.1970 o         1 MOL     -0.545027
    127 C41        -7.9360    1.2320   -1.3560 c3        1 MOL     -0.308693
    128 C42        -8.7440    2.4860   -1.5370 ca        1 MOL      0.221472
    129 C43        -9.6050    2.9470   -0.5170 ca        1 MOL     -0.282022
    130 C44        -8.8700    3.0450   -2.8250 ca        1 MOL     -0.282022
    131 C45       -10.5350    4.0300   -0.7430 ca        1 MOL     -0.144018
    132 C46        -9.8060    4.0880   -3.0490 ca        1 MOL     -0.144018
    133 C47       -10.6330    4.5520   -2.0670 ca        1 MOL      0.207602
    134 O20       -11.6080    5.4450   -2.3570 oh        1 MOL     -0.463666
    135 H56        -5.7130    2.3680   -1.4880 hn        1 MOL      0.334705
    136 H57        -7.3290    1.8380    0.6850 h1        1 MOL      0.066135
    137 H58        -8.6030    0.3890   -1.1750 hc        1 MOL      0.126593
    138 H59        -7.3340    1.1840   -2.2640 hc        1 MOL      0.126593
    139 H60        -9.6650    2.4720    0.4540 ha        1 MOL      0.166278
    140 H61        -8.3130    2.6150   -3.6390 ha        1 MOL      0.166278
    141 H62       -11.2650    4.4070   -0.0420 ha        1 MOL      0.114001
    142 H63        -9.7870    4.5480   -4.0290 ha        1 MOL      0.114001
    143 H64       -11.6900    5.6120   -3.2980 ho        1 MOL      0.342664
    144 N13        -6.0950   -1.0380   -0.4890 n         1 MOL     -0.500944
    145 C48        -6.1590   -2.4850   -0.3380 c3        1 MOL     -0.241719
    146 C49        -5.2500   -2.9750    0.7640 c         1 MOL      0.507859
    147 O21        -5.3760   -4.1020    1.2590 o         1 MOL     -0.518334
    148 C50        -5.7440   -3.0150   -1.7560 c3        1 MOL      0.331940
    149 C51        -6.4520   -4.3700   -2.0240 c3        1 MOL     -0.332772
    150 C52        -7.9810   -4.3760   -1.8490 c         1 MOL      0.688362
    151 O22        -8.6570   -3.4670   -2.4140 o         1 MOL     -0.734983
    152 O23        -8.5180   -5.2010   -1.0590 o         1 MOL     -0.734983
    153 H65        -5.6600   -0.7920   -1.3710 hn        1 MOL      0.336373
    154 H66        -7.2050   -2.6620   -0.1190 h1        1 MOL      0.255439
    155 H67        -4.6740   -3.1420   -1.8710 hc        1 MOL     -0.065986
    156 H68        -6.0040   -2.3130   -2.5560 hc        1 MOL     -0.065986
    157 H69        -6.0530   -5.0950   -1.3100 hc        1 MOL      0.041271
    158 H70        -6.1630   -4.6820   -3.0290 hc        1 MOL      0.041271
    159 N14        -4.2960   -2.1520    1.1650 n         1 MOL     -0.315814
    160 C53        -3.4010   -2.2670    2.2990 c3        1 MOL     -0.013565
    161 C54        -4.0730   -1.7820    3.6190 c         1 MOL      0.454342
    162 O24        -3.7600   -2.3010    4.6740 o         1 MOL     -0.531746
    163 C55        -2.1240   -1.5250    2.0330 c3        1 MOL     -0.320102
    164 C56        -1.1590   -2.1700    0.9490 c3        1 MOL      0.154844
    165 C57        -0.0180   -1.2660    0.4700 c         1 MOL      0.680094
    166 O25         0.9670   -1.8070   -0.0140 o         1 MOL     -0.697610
    167 O26        -0.0470   -0.0220    0.4470 o         1 MOL     -0.697610
    168 H71        -4.3550   -1.2070    0.8170 hn        1 MOL      0.257782
    169 H72        -3.1320   -3.3000    2.4840 h1        1 MOL      0.075877
    170 H73        -1.6580   -1.2240    2.9650 hc        1 MOL      0.114643
    171 H74        -2.4910   -0.5790    1.6160 hc        1 MOL      0.114643
    172 H75        -1.7960   -2.3910    0.0910 hc        1 MOL     -0.006331
    173 H76        -0.7830   -3.1590    1.2150 hc        1 MOL     -0.006331
    174 N15        -4.9530   -0.7600    3.5210 n         1 MOL     -0.133778
    175 C58        -5.4490   -0.0460    4.7190 c3        1 MOL     -0.212286
    176 H77        -5.9520   -0.7530    5.3800 h1        1 MOL      0.082752
    177 H78        -4.6090    0.4080    5.2450 h1        1 MOL      0.082752
    178 H79        -6.1520    0.7300    4.4160 h1        1 MOL      0.082752
    179 H80        -5.1290   -0.2860    2.6450 hn        1 MOL      0.143621
    180 Ca1         2.5310    0.1860    0.1210 Ca        1 MOL      1.661331
    181 O27         2.1950   -0.1720    2.7420 oh        1 MOL     -0.868678
    182 O28         1.1550    0.9780   -2.0620 oh        1 MOL     -0.868678
    183 H81         1.8210   -1.0190    2.9800 ho        1 MOL      0.423600
    184 H82         1.6580    0.3050   -2.5230 ho        1 MOL      0.423600
    185 H83         2.5060    0.1910    3.5710 ho        1 MOL      0.423600
    186 H84         1.4750    1.8040   -2.4310 ho        1 MOL      0.423600
    187 O29         4.9460    0.6600    1.3990 oh        1 MOL     -0.868678
    188 H85         5.1270    1.0890    2.2330 ho        1 MOL      0.423600
    189 H86         5.1450   -0.2600    1.5550 ho        1 MOL      0.423600
@<TRIPOS>BOND
     1    1    2 1   
     2    1    4 1   
     3    1    5 1   
     4    1    6 1   
     5    2    3 2   
     6    2    7 1   
     7    7    8 1   
     8    7   15 1   
     9    8    9 1   
    10    8   11 1   
    11    8   16 1   
    12    9   10 2   
    13    9   19 1   
    14   11   12 1   
    15   11   17 1   
    16   11   18 1   
    17   12   13 1   
    18   12   14 1   
    19   19   20 1   
    20   19   27 1   
    21   20   21 1   
    22   20   23 1   
    23   20   28 1   
    24   21   22 2   
    25   21   38 1   
    26   23   24 1   
    27   23   25 1   
    28   23   29 1   
    29   24   26 1   
    30   24   30 1   
    31   24   31 1   
    32   25   32 1   
    33   25   33 1   
    34   25   34 1   
    35   26   35 1   
    36   26   36 1   
    37   26   37 1   
    38   38   39 1   
    39   38   46 1   
    40   39   40 1   
    41   39   42 1   
    42   39   47 1   
    43   40   41 2   
    44   40   50 1   
    45   42   43 1   
    46   42   48 1   
    47   42   49 1   
    48   43   44 1   
    49   43   45 1   
    50   50   51 1   
    51   50   54 1   
    52   51   52 1   
    53   51   55 1   
    54   51   56 1   
    55   52   53 2   
    56   52   57 1   
    57   57   58 1   
    58   57   65 1   
    59   58   59 1   
    60   58   61 1   
    61   58   66 1   
    62   59   60 2   
    63   59   69 1   
    64   61   62 1   
    65   61   67 1   
    66   61   68 1   
    67   62   63 1   
    68   62   64 1   
    69   69   70 1   
    70   69   73 1   
    71   70   71 1   
    72   70   74 1   
    73   70   75 1   
    74   71   72 2   
    75   71   76 1   
    76   76   77 1   
    77   76   85 1   
    78   77   78 1   
    79   77   80 1   
    80   77   86 1   
    81   78   79 2   
    82   78   93 1   
    83   80   81 1   
    84   80   87 1   
    85   80   88 1   
    86   81   82 1   
    87   81   89 1   
    88   81   90 1   
    89   82   83 1   
    90   82   84 2   
    91   83   91 1   
    92   83   92 1   
    93   93   94 1   
    94   93  100 1   
    95   94   95 1   
    96   94   97 1   
    97   94  101 1   
    98   95   96 2   
    99   95  109 1   
   100   97   98 1   
   101   97   99 1   
   102   97  102 1   
   103   98  103 1   
   104   98  104 1   
   105   98  105 1   
   106   99  106 1   
   107   99  107 1   
   108   99  108 1   
   109  109  110 1   
   110  109  117 1   
   111  110  111 1   
   112  110  113 1   
   113  110  118 1   
   114  111  112 2   
   115  111  123 1   
   116  113  114 1   
   117  113  119 1   
   118  113  120 1   
   119  114  115 1   
   120  114  116 2   
   121  115  121 1   
   122  115  122 1   
   123  123  124 1   
   124  123  135 1   
   125  124  125 1   
   126  124  127 1   
   127  124  136 1   
   128  125  126 2   
   129  125  144 1   
   130  127  128 1   
   131  127  137 1   
   132  127  138 1   
   133  128  129 ar  
   134  128  130 ar  
   135  129  131 ar  
   136  129  139 1   
   137  130  132 ar  
   138  130  140 1   
   139  131  133 ar  
   140  131  141 1   
   141  132  133 ar  
   142  132  142 1   
   143  133  134 1   
   144  134  143 1   
   145  144  145 1   
   146  144  153 1   
   147  145  146 1   
   148  145  148 1   
   149  145  154 1   
   150  146  147 2   
   151  146  159 1   
   152  148  149 1   
   153  148  155 1   
   154  148  156 1   
   155  149  150 1   
   156  149  157 1   
   157  149  158 1   
   158  150  151 1   
   159  150  152 1   
   160  159  160 1   
   161  159  168 1   
   162  160  161 1   
   163  160  163 1   
   164  160  169 1   
   165  161  162 2   
   166  161  174 1   
   167  163  164 1   
   168  163  170 1   
   169  163  171 1   
   170  164  165 1   
   171  164  172 1   
   172  164  173 1   
   173  165  166 1   
   174  165  167 1   
   175  174  175 1   
   176  174  179 1   
   177  175  176 1   
   178  175  177 1   
   179  175  178 1   
   180  181  183 1   
   181  181  185 1   
   182  182  184 1   
   183  182  186 1   
   184  187  188 1   
   185  187  189 1   
@<TRIPOS>SUBSTRUCTURE
     1 MOL         1 TEMP              0 ****  ****    0 ROOT
