@<TRIPOS>MOLECULE
MOL
  186   183     1     0     0
SMALL
resp


@<TRIPOS>ATOM
      1 C1          0.8490   -1.6770    6.4910 c3        1 MOL     -0.314960
      2 C2          1.0390   -1.5920    4.9440 c         1 MOL      0.747077
      3 O1         -0.0050   -1.6550    4.2640 o         1 MOL     -0.566982
      4 H1         -0.0710   -1.1640    6.7720 hc        1 MOL      0.067833
      5 H2          0.7880   -2.7230    6.7930 hc        1 MOL      0.067833
      6 H3          1.6950   -1.2030    6.9880 hc        1 MOL      0.067833
      7 N1          2.2600   -1.6400    4.4390 n         1 MOL     -0.641742
      8 C3          2.5550   -1.6390    2.9590 c3        1 MOL      0.079098
      9 C4          2.9970   -3.0660    2.4110 c         1 MOL      0.713660
     10 O2          3.7990   -3.7110    3.0940 o         1 MOL     -0.626545
     11 C5          3.6030   -0.5540    2.7520 c3        1 MOL     -0.171617
     12 C6          4.1210   -0.5350    1.3370 c         1 MOL      0.961162
     13 O3          5.3560   -0.3900    1.2410 o         1 MOL     -0.763298
     14 O4          3.4210   -0.8980    0.3670 o         1 MOL     -0.763298
     15 H4          3.0110   -1.7630    5.1020 hn        1 MOL      0.339606
     16 H5          1.7130   -1.3300    2.3380 h1        1 MOL      0.043724
     17 H6          4.4510   -0.7140    3.4170 hc        1 MOL      0.020788
     18 H7          3.1980    0.4340    2.9810 hc        1 MOL      0.020788
     19 N2          2.4270   -3.5120    1.3550 n         1 MOL     -0.539201
     20 C7          2.6140   -4.8870    0.8560 c3        1 MOL     -0.007829
     21 C8          3.6990   -4.8790   -0.3570 c         1 MOL      0.508055
     22 O5          4.1290   -5.9590   -0.7340 o         1 MOL     -0.560786
     23 C9          1.2150   -5.4760    0.4430 c3        1 MOL      0.100574
     24 C10         0.3660   -5.5870    1.7150 c3        1 MOL      0.136540
     25 C11         1.3470   -6.8880   -0.2900 c3        1 MOL     -0.258672
     26 C12        -1.1390   -5.8940    1.5580 c3        1 MOL     -0.275074
     27 H8          1.9650   -2.8320    0.7670 hn        1 MOL      0.259862
     28 H9          3.1890   -5.4110    1.6220 h1        1 MOL      0.077869
     29 H10         0.6820   -4.8480   -0.2710 hc        1 MOL      0.062250
     30 H11         0.4940   -4.7010    2.3340 hc        1 MOL     -0.022253
     31 H12         0.8050   -6.3590    2.3610 hc        1 MOL     -0.022253
     32 H13         2.0940   -7.5470    0.1610 hc        1 MOL      0.057306
     33 H14         0.4840   -7.5370   -0.4100 hc        1 MOL      0.057306
     34 H15         1.7500   -6.6940   -1.2800 hc        1 MOL      0.057306
     35 H16        -1.5050   -5.6650    2.5560 hc        1 MOL      0.059467
     36 H17        -1.5630   -5.2860    0.7540 hc        1 MOL      0.059467
     37 H18        -1.3080   -6.9460    1.3360 hc        1 MOL      0.059467
     38 N3          4.1950   -3.7210   -0.8450 n         1 MOL     -0.200467
     39 C13         5.2650   -3.6930   -1.8010 c3        1 MOL     -0.029489
     40 C14         6.7160   -3.3750   -1.1780 c         1 MOL      0.368615
     41 O6          7.6830   -3.7670   -1.7890 o         1 MOL     -0.532443
     42 C15         4.9590   -2.7770   -2.9210 c3        1 MOL      0.163803
     43 C16         3.5160   -2.6630   -3.3560 c         1 MOL      0.572749
     44 O7          3.0590   -3.5610   -4.0260 o         1 MOL     -0.665329
     45 O8          2.8820   -1.6430   -3.0610 o         1 MOL     -0.665329
     46 H19         3.9550   -2.8370   -0.4340 hn        1 MOL      0.101707
     47 H20         5.3950   -4.6660   -2.2900 h1        1 MOL      0.072534
     48 H21         5.4840   -3.1350   -3.7950 hc        1 MOL     -0.045493
     49 H22         5.4220   -1.8160   -2.6900 hc        1 MOL     -0.045493
     50 N4          6.7450   -2.6160   -0.1210 n         1 MOL     -0.095916
     51 C17         7.9140   -1.9920    0.4690 c3        1 MOL     -0.326200
     52 C18         8.3020   -0.7540   -0.4010 c         1 MOL      0.639084
     53 O9          9.4900   -0.5890   -0.7200 o         1 MOL     -0.641464
     54 H23         5.8410   -2.3430    0.2420 hn        1 MOL      0.147584
     55 H24         8.6910   -2.7600    0.4370 h1        1 MOL      0.124714
     56 H25         7.7760   -1.6760    1.5090 h1        1 MOL      0.124714
     57 N5          7.3990    0.1270   -0.5910 n         1 MOL     -0.379826
     58 C19         7.4360    1.3630   -1.3610 c3        1 MOL      0.270235
     59 C20         7.1230    2.5510   -0.3600 c         1 MOL      0.399877
     60 O10         7.5140    3.6930   -0.6650 o         1 MOL     -0.539014
     61 C21         6.4790    1.3530   -2.6000 c3        1 MOL     -0.271074
     62 C22         4.9690    1.4030   -2.4560 c         1 MOL      0.826903
     63 O11         4.4510    1.4990   -1.3250 o         1 MOL     -0.791623
     64 O12         4.1570    1.2640   -3.4400 o         1 MOL     -0.791623
     65 H26         6.5300   -0.0670   -0.1310 hn        1 MOL      0.251916
     66 H27         8.4420    1.5830   -1.7310 h1        1 MOL      0.018764
     67 H28         6.7260    0.4220   -3.1180 hc        1 MOL      0.053297
     68 H29         6.7130    2.2870   -3.1180 hc        1 MOL      0.053297
     69 N6          6.5370    2.2980    0.8620 n         1 MOL     -0.388796
     70 C23         6.5030    3.3620    1.9640 c3        1 MOL     -0.045165
     71 C24         5.2820    4.2300    1.8260 c         1 MOL      0.507276
     72 O13         5.2590    5.2590    2.5000 o         1 MOL     -0.594946
     73 H30         6.0410    1.4530    1.0940 hn        1 MOL      0.251197
     74 H31         7.4080    3.9600    1.8790 h1        1 MOL      0.079183
     75 H32         6.5630    2.8250    2.9070 h1        1 MOL      0.079183
     76 N7          4.2940    3.8570    1.0200 n         1 MOL     -0.295229
     77 C25         2.9990    4.3750    1.0270 c3        1 MOL      0.160203
     78 C26         2.0170    3.2120    1.0340 c         1 MOL      0.644265
     79 O14         2.3300    2.0900    0.6880 o         1 MOL     -0.647644
     80 C27         2.8560    5.3260   -0.1670 c3        1 MOL     -0.307737
     81 C28         3.5310    6.7000    0.1190 c3        1 MOL     -0.175800
     82 C29         2.9590    7.7980   -0.8230 c         1 MOL      0.665992
     83 N8          3.1900    7.7380   -2.1040 n         1 MOL     -0.819401
     84 O15         2.3530    8.7650   -0.3930 o         1 MOL     -0.593421
     85 H33         4.3870    2.9780    0.5160 hn        1 MOL      0.251482
     86 H34         2.6840    4.9120    1.9280 h1        1 MOL      0.025663
     87 H35         1.7890    5.4780   -0.3000 hc        1 MOL      0.115229
     88 H36         3.3010    4.9810   -1.1070 hc        1 MOL      0.115229
     89 H37         4.6140    6.6770   -0.0550 hc        1 MOL      0.097569
     90 H38         3.4080    7.0260    1.1500 hc        1 MOL      0.097569
     91 H39         3.7510    7.0940   -2.6350 hn        1 MOL      0.359879
     92 H40         2.7560    8.4570   -2.6720 hn        1 MOL      0.359879
     93 N9          0.8040    3.5600    1.4730 n         1 MOL     -0.579962
     94 C30        -0.2410    2.5160    1.7540 c3        1 MOL      0.023972
     95 C31        -1.5080    2.9770    0.9420 c         1 MOL      0.445493
     96 O16        -2.0760    3.9550    1.2720 o         1 MOL     -0.552784
     97 C32        -0.4950    2.5130    3.3150 c3        1 MOL      0.262924
     98 C33        -1.6720    1.5850    3.7110 c3        1 MOL     -0.237730
     99 C34         0.8270    2.0020    3.9630 c3        1 MOL     -0.237730
    100 H41         0.5760    4.4720    1.8280 hn        1 MOL      0.317012
    101 H42         0.0420    1.5370    1.3670 h1        1 MOL      0.162637
    102 H43        -0.7330    3.5030    3.6970 hc        1 MOL     -0.028589
    103 H44        -1.7410    0.6910    3.0880 hc        1 MOL      0.040989
    104 H45        -1.6040    1.3030    4.7550 hc        1 MOL      0.040989
    105 H46        -2.5960    2.1560    3.5980 hc        1 MOL      0.040989
    106 H47         0.6590    2.0440    5.0390 hc        1 MOL      0.040989
    107 H48         1.0640    1.0060    3.5940 hc        1 MOL      0.040989
    108 H49         1.6090    2.6970    3.6420 hc        1 MOL      0.040989
    109 N10        -1.8910    2.1570   -0.0430 n         1 MOL     -0.134899
    110 C35        -3.1400    2.3240   -0.8300 c3        1 MOL     -0.125485
    111 C36        -4.4270    1.8350   -0.1380 c         1 MOL      0.590599
    112 O17        -4.2880    1.0590    0.7910 o         1 MOL     -0.385883
    113 C37        -2.9030    1.4760   -2.1540 c3        1 MOL     -0.323881
    114 C38        -3.9290    1.7020   -3.3020 c         1 MOL      0.663587
    115 N11        -3.5350    2.2450   -4.4160 n         1 MOL     -0.788307
    116 O18        -5.1170    1.4590   -3.1980 o         1 MOL     -0.522962
    117 H50        -1.2450    1.3840   -0.1540 hn        1 MOL      0.072922
    118 H51        -3.2570    3.3850   -1.0420 h1        1 MOL      0.092635
    119 H52        -2.9160    0.3980   -1.9880 hc        1 MOL      0.106706
    120 H53        -1.9010    1.6580   -2.5490 hc        1 MOL      0.106706
    121 H54        -2.5460    2.4550   -4.4560 hn        1 MOL      0.378828
    122 H55        -4.2310    2.5200   -5.1050 hn        1 MOL      0.378828
    123 N12        -5.6590    2.1790   -0.6170 n         1 MOL     -0.696633
    124 C39        -6.9530    1.7050   -0.1150 c3        1 MOL      0.259840
    125 C40        -7.1050    0.2440   -0.1150 c         1 MOL      0.549355
    126 O19        -7.5670   -0.2920    0.8770 o         1 MOL     -0.539797
    127 C41        -8.0890    2.3170   -0.9210 c3        1 MOL     -0.046298
    128 C42        -9.4310    2.0150   -0.3470 ca        1 MOL     -0.151822
    129 C43        -9.6750    2.2690    1.0200 ca        1 MOL     -0.039501
    130 C44       -10.2750    1.1610   -1.0730 ca        1 MOL     -0.039501
    131 C45       -10.9150    1.9210    1.5310 ca        1 MOL     -0.345331
    132 C46       -11.5680    0.7130   -0.5200 ca        1 MOL     -0.345331
    133 C47       -11.8420    1.1640    0.7610 ca        1 MOL      0.465755
    134 O20       -13.0880    0.8330    1.1930 oh        1 MOL     -0.576132
    135 H56        -5.6520    2.7300   -1.4590 hn        1 MOL      0.313108
    136 H57        -7.0240    2.0270    0.9280 h1        1 MOL      0.055908
    137 H58        -7.8740    2.0280   -1.9410 hc        1 MOL      0.032775
    138 H59        -7.9700    3.4010   -0.8930 hc        1 MOL      0.032775
    139 H60        -8.9120    2.7850    1.5910 ha        1 MOL      0.113765
    140 H61        -9.9800    0.8540   -2.0750 ha        1 MOL      0.113765
    141 H62       -11.2140    2.0860    2.5620 ha        1 MOL      0.155912
    142 H63       -12.3110    0.1560   -1.0840 ha        1 MOL      0.155912
    143 H64       -13.5640    0.1790    0.6780 ho        1 MOL      0.384007
    144 N13        -6.5720   -0.4300   -1.1540 n         1 MOL     -0.386409
    145 C48        -6.5690   -1.8940   -1.3490 c3        1 MOL     -0.149048
    146 C49        -5.6440   -2.5620   -0.2640 c         1 MOL      0.412995
    147 O21        -5.9560   -3.6960    0.1700 o         1 MOL     -0.524560
    148 C50        -6.1040   -2.1720   -2.7860 c3        1 MOL      0.130378
    149 C51        -4.6000   -1.9540   -3.1380 c3        1 MOL     -0.023777
    150 C52        -4.4870   -2.4790   -4.5330 c         1 MOL      0.641571
    151 O22        -4.4940   -1.6240   -5.4510 o         1 MOL     -0.720728
    152 O23        -4.4510   -3.6850   -4.6930 o         1 MOL     -0.720728
    153 H65        -6.1380    0.1920   -1.8370 hn        1 MOL      0.294309
    154 H66        -7.5550   -2.3360   -1.2800 h1        1 MOL      0.104265
    155 H67        -6.6560   -1.4970   -3.4340 hc        1 MOL     -0.015120
    156 H68        -6.3640   -3.1580   -3.1610 hc        1 MOL     -0.015120
    157 H69        -4.0350   -2.6490   -2.5130 hc        1 MOL     -0.024112
    158 H70        -4.2880   -0.9080   -3.0890 hc        1 MOL     -0.024112
    159 N14        -4.5160   -1.9620    0.1930 n         1 MOL     -0.084841
    160 C53        -3.5910   -2.4100    1.2830 c3        1 MOL     -0.022329
    161 C54        -4.2330   -2.1800    2.6090 c         1 MOL      0.357900
    162 O24        -4.3140   -3.0580    3.5130 o         1 MOL     -0.578104
    163 C55        -2.2430   -1.6770    1.2170 c3        1 MOL      0.070220
    164 C56        -1.4410   -2.0750   -0.0020 c3        1 MOL      0.048712
    165 C57        -0.1330   -1.3130   -0.1850 c         1 MOL      0.452684
    166 O25         0.8410   -1.9610   -0.5540 o         1 MOL     -0.597303
    167 O26        -0.1330   -0.0420   -0.3520 o         1 MOL     -0.597303
    168 H71        -4.2870   -1.0780   -0.2390 hn        1 MOL      0.079194
    169 H72        -3.4480   -3.4920    1.1690 h1        1 MOL      0.071579
    170 H73        -1.7290   -2.0350    2.1130 hc        1 MOL      0.030100
    171 H74        -2.2600   -0.5900    1.3160 hc        1 MOL      0.030100
    172 H75        -1.9860   -1.8940   -0.9280 hc        1 MOL      0.013969
    173 H76        -1.3830   -3.1590    0.1140 hc        1 MOL      0.013969
    174 N15        -4.8530   -1.0800    2.8630 n         1 MOL      0.044886
    175 C58        -5.6530   -0.7700    4.0740 c3        1 MOL     -0.261344
    176 H77        -6.3510    0.0370    3.8510 h1        1 MOL      0.096450
    177 H78        -6.2090   -1.6560    4.3790 h1        1 MOL      0.096450
    178 H79        -4.9880   -0.4620    4.8810 h1        1 MOL      0.096450
    179 H80        -4.7600   -0.3930    2.1310 hn        1 MOL      0.012758
    180 Ca1         2.1150    0.2860   -1.5350 Ca        1 MOL      1.704430
    181 O27         0.9420    2.5410   -2.1950 oh        1 MOL     -0.836411
    182 H81         0.2460    2.3470   -2.8240 ho        1 MOL      0.407564
    183 H82         1.2300    3.4300   -2.4230 ho        1 MOL      0.407564
    184 O28         0.3560   -0.1190   -3.7250 oh        1 MOL     -0.836411
    185 H83        -0.4300   -0.0640   -4.2590 ho        1 MOL      0.407564
    186 H84         0.4970   -1.0540   -3.5930 ho        1 MOL      0.407564
@<TRIPOS>BOND
     1    1    2 1   
     2    1    4 1   
     3    1    5 1   
     4    1    6 1   
     5    2    3 2   
     6    2    7 1   
     7    7    8 1   
     8    7   15 1   
     9    8    9 1   
    10    8   11 1   
    11    8   16 1   
    12    9   10 2   
    13    9   19 1   
    14   11   12 1   
    15   11   17 1   
    16   11   18 1   
    17   12   13 1   
    18   12   14 1   
    19   19   20 1   
    20   19   27 1   
    21   20   21 1   
    22   20   23 1   
    23   20   28 1   
    24   21   22 2   
    25   21   38 1   
    26   23   24 1   
    27   23   25 1   
    28   23   29 1   
    29   24   26 1   
    30   24   30 1   
    31   24   31 1   
    32   25   32 1   
    33   25   33 1   
    34   25   34 1   
    35   26   35 1   
    36   26   36 1   
    37   26   37 1   
    38   38   39 1   
    39   38   46 1   
    40   39   40 1   
    41   39   42 1   
    42   39   47 1   
    43   40   41 2   
    44   40   50 1   
    45   42   43 1   
    46   42   48 1   
    47   42   49 1   
    48   43   44 1   
    49   43   45 1   
    50   50   51 1   
    51   50   54 1   
    52   51   52 1   
    53   51   55 1   
    54   51   56 1   
    55   52   53 2   
    56   52   57 1   
    57   57   58 1   
    58   57   65 1   
    59   58   59 1   
    60   58   61 1   
    61   58   66 1   
    62   59   60 2   
    63   59   69 1   
    64   61   62 1   
    65   61   67 1   
    66   61   68 1   
    67   62   63 1   
    68   62   64 1   
    69   69   70 1   
    70   69   73 1   
    71   70   71 1   
    72   70   74 1   
    73   70   75 1   
    74   71   72 2   
    75   71   76 1   
    76   76   77 1   
    77   76   85 1   
    78   77   78 1   
    79   77   80 1   
    80   77   86 1   
    81   78   79 2   
    82   78   93 1   
    83   80   81 1   
    84   80   87 1   
    85   80   88 1   
    86   81   82 1   
    87   81   89 1   
    88   81   90 1   
    89   82   83 1   
    90   82   84 2   
    91   83   91 1   
    92   83   92 1   
    93   93   94 1   
    94   93  100 1   
    95   94   95 1   
    96   94   97 1   
    97   94  101 1   
    98   95   96 2   
    99   95  109 1   
   100   97   98 1   
   101   97   99 1   
   102   97  102 1   
   103   98  103 1   
   104   98  104 1   
   105   98  105 1   
   106   99  106 1   
   107   99  107 1   
   108   99  108 1   
   109  109  110 1   
   110  109  117 1   
   111  110  111 1   
   112  110  113 1   
   113  110  118 1   
   114  111  112 2   
   115  111  123 1   
   116  113  114 1   
   117  113  119 1   
   118  113  120 1   
   119  114  115 1   
   120  114  116 2   
   121  115  121 1   
   122  115  122 1   
   123  123  124 1   
   124  123  135 1   
   125  124  125 1   
   126  124  127 1   
   127  124  136 1   
   128  125  126 2   
   129  125  144 1   
   130  127  128 1   
   131  127  137 1   
   132  127  138 1   
   133  128  129 ar  
   134  128  130 ar  
   135  129  131 ar  
   136  129  139 1   
   137  130  132 ar  
   138  130  140 1   
   139  131  133 ar  
   140  131  141 1   
   141  132  133 ar  
   142  132  142 1   
   143  133  134 1   
   144  134  143 1   
   145  144  145 1   
   146  144  153 1   
   147  145  146 1   
   148  145  148 1   
   149  145  154 1   
   150  146  147 2   
   151  146  159 1   
   152  148  149 1   
   153  148  155 1   
   154  148  156 1   
   155  149  150 1   
   156  149  157 1   
   157  149  158 1   
   158  150  151 1   
   159  150  152 1   
   160  159  160 1   
   161  159  168 1   
   162  160  161 1   
   163  160  163 1   
   164  160  169 1   
   165  161  162 2   
   166  161  174 1   
   167  163  164 1   
   168  163  170 1   
   169  163  171 1   
   170  164  165 1   
   171  164  172 1   
   172  164  173 1   
   173  165  166 1   
   174  165  167 1   
   175  174  175 1   
   176  174  179 1   
   177  175  176 1   
   178  175  177 1   
   179  175  178 1   
   180  181  182 1   
   181  181  183 1   
   182  184  185 1   
   183  184  186 1   
@<TRIPOS>SUBSTRUCTURE
     1 MOL         1 TEMP              0 ****  ****    0 ROOT
