@<TRIPOS>MOLECULE
MOL
  189   185     1     0     0
SMALL
resp


@<TRIPOS>ATOM
      1 C1         -1.1190    3.5020    5.7620 c3        1 MOL     -0.544266
      2 C2         -1.2780    3.0050    4.3100 c         1 MOL      0.708025
      3 O1         -0.8060    1.9970    3.8490 o         1 MOL     -0.507234
      4 H1         -0.0880    3.8130    5.9290 hc        1 MOL      0.143218
      5 H2         -1.7850    4.3480    5.9320 hc        1 MOL      0.143218
      6 H3         -1.3710    2.6970    6.4520 hc        1 MOL      0.143218
      7 N1         -2.0590    3.7520    3.5600 n         1 MOL     -0.605282
      8 C3         -2.6140    3.5080    2.2060 c3        1 MOL      0.078823
      9 C4         -2.5340    4.8070    1.2990 c         1 MOL      0.568974
     10 O2         -2.9570    5.8210    1.7590 o         1 MOL     -0.583694
     11 C5         -4.0480    3.0890    2.4080 c3        1 MOL      0.042207
     12 C6         -4.7080    2.6620    1.1000 c         1 MOL      0.483087
     13 O3         -4.0160    2.1030    0.2220 o         1 MOL     -0.613142
     14 O4         -5.8480    3.1200    0.8620 o         1 MOL     -0.613142
     15 H4         -2.3160    4.6330    3.9730 hn        1 MOL      0.297374
     16 H5         -1.9690    2.7520    1.7570 h1        1 MOL      0.119117
     17 H6         -4.6740    3.8840    2.7980 hc        1 MOL     -0.031278
     18 H7         -4.1050    2.3020    3.1640 hc        1 MOL     -0.031278
     19 N2         -2.1230    4.6310    0.0620 n         1 MOL     -0.020533
     20 C7         -2.4050    5.6500   -0.9720 c3        1 MOL     -0.379400
     21 C8         -3.1170    5.0710   -2.2760 c         1 MOL      0.654983
     22 O5         -3.5020    5.8830   -3.1080 o         1 MOL     -0.613188
     23 C9         -1.2090    6.5590   -1.2380 c3        1 MOL      0.375525
     24 C10        -0.1510    5.6990   -1.9870 c3        1 MOL     -0.094010
     25 C11        -0.7350    7.3470    0.0440 c3        1 MOL     -0.113033
     26 C12         1.0650    6.5240   -2.4590 c3        1 MOL     -0.410805
     27 H8         -1.5590    3.8390   -0.2100 hn        1 MOL     -0.067935
     28 H9         -3.2000    6.2930   -0.6210 h1        1 MOL      0.127978
     29 H10        -1.5910    7.3130   -1.9290 hc        1 MOL     -0.062821
     30 H11        -0.6130    5.1720   -2.8230 hc        1 MOL      0.105092
     31 H12         0.2580    5.1000   -1.1670 hc        1 MOL      0.105092
     32 H13        -0.0210    8.0920   -0.3110 hc        1 MOL      0.003194
     33 H14        -1.5410    7.9300    0.4750 hc        1 MOL      0.003194
     34 H15        -0.3210    6.6390    0.7600 hc        1 MOL      0.003194
     35 H16         1.6570    5.9720   -3.1920 hc        1 MOL      0.095725
     36 H17         0.6790    7.4630   -2.8610 hc        1 MOL      0.095725
     37 H18         1.7500    6.6110   -1.6160 hc        1 MOL      0.095725
     38 N3         -3.3890    3.7520   -2.3640 n         1 MOL     -0.509750
     39 C13        -3.9010    3.1560   -3.6370 c3        1 MOL      0.151326
     40 C14        -5.1650    2.2730   -3.5120 c         1 MOL      0.338216
     41 O6         -5.8130    1.9340   -4.4980 o         1 MOL     -0.519759
     42 C15        -2.7160    2.3780   -4.2580 c3        1 MOL     -0.462818
     43 C16        -2.0740    1.3530   -3.2920 c         1 MOL      0.829439
     44 O7         -2.3460    1.2820   -2.0810 o         1 MOL     -0.721541
     45 O8         -1.1430    0.6450   -3.7330 o         1 MOL     -0.721541
     46 H19        -3.0670    3.1390   -1.6260 hn        1 MOL      0.452443
     47 H20        -4.1190    4.0010   -4.2860 h1        1 MOL      0.092045
     48 H21        -1.9150    3.0100   -4.6110 hc        1 MOL      0.118848
     49 H22        -3.1440    1.7420   -5.0360 hc        1 MOL      0.118848
     50 N4         -5.5300    1.9130   -2.2210 n         1 MOL     -0.162999
     51 C17        -6.8610    1.4040   -1.7980 c3        1 MOL      0.083401
     52 C18        -7.0480   -0.0990   -2.2170 c         1 MOL      0.389123
     53 O9         -8.1620   -0.4560   -2.4950 o         1 MOL     -0.589696
     54 H23        -4.9210    2.1420   -1.4520 hn        1 MOL      0.054845
     55 H24        -7.7140    1.9790   -2.1490 h1        1 MOL      0.027112
     56 H25        -6.9010    1.5280   -0.7130 h1        1 MOL      0.027112
     57 N5         -6.0220   -0.8890   -2.1360 n         1 MOL     -0.072797
     58 C19        -6.0480   -2.3150   -2.5580 c3        1 MOL     -0.010984
     59 C20        -6.4150   -3.3010   -1.3830 c         1 MOL      0.334330
     60 O10        -6.8210   -4.4170   -1.6230 o         1 MOL     -0.502616
     61 C21        -4.7110   -2.7700   -3.1610 c3        1 MOL     -0.433892
     62 C22        -3.5460   -2.5510   -2.2420 c         1 MOL      0.789830
     63 O11        -3.5210   -1.7690   -1.3160 o         1 MOL     -0.715864
     64 O12        -2.4030   -2.9970   -2.5860 o         1 MOL     -0.715864
     65 H26        -5.1430   -0.5720   -1.7640 hn        1 MOL      0.120388
     66 H27        -6.8160   -2.3470   -3.3300 h1        1 MOL      0.117560
     67 H28        -4.4950   -2.1540   -4.0340 hc        1 MOL      0.133102
     68 H29        -4.8140   -3.8170   -3.4370 hc        1 MOL      0.133102
     69 N6         -6.3320   -2.7490   -0.1970 n         1 MOL     -0.099024
     70 C23        -6.6860   -3.3110    1.1090 c3        1 MOL     -0.221920
     71 C24        -5.4130   -4.0360    1.7550 c         1 MOL      0.462878
     72 O13        -5.5660   -4.5990    2.8820 o         1 MOL     -0.577189
     73 H30        -5.9430   -1.8090   -0.2240 hn        1 MOL      0.101186
     74 H31        -7.5620   -3.9430    1.0170 h1        1 MOL      0.120497
     75 H32        -6.8710   -2.5100    1.8280 h1        1 MOL      0.120497
     76 N7         -4.1700   -3.9640    1.2490 n         1 MOL     -0.199229
     77 C25        -2.9140   -4.3060    1.9530 c3        1 MOL     -0.033934
     78 C26        -1.8940   -3.2250    1.9450 c         1 MOL      0.470427
     79 O14        -1.8950   -2.3750    1.0430 o         1 MOL     -0.506348
     80 C27        -2.4080   -5.6810    1.5170 c3        1 MOL     -0.149586
     81 C28        -2.5660   -5.9910   -0.0430 c3        1 MOL     -0.027914
     82 C29        -3.9460   -6.5150   -0.4680 c         1 MOL      0.497700
     83 N8         -4.2400   -6.5090   -1.7790 n         1 MOL     -0.732071
     84 O15        -4.8240   -6.9020    0.3170 o         1 MOL     -0.513401
     85 H33        -4.1530   -3.5540    0.3270 hn        1 MOL      0.332434
     86 H34        -3.2750   -4.4470    2.9710 h1        1 MOL      0.061749
     87 H35        -2.9840   -6.4350    2.0650 hc        1 MOL      0.067569
     88 H36        -1.3830   -5.9050    1.8200 hc        1 MOL      0.067569
     89 H37        -1.8200   -6.7380   -0.3320 hc        1 MOL      0.025870
     90 H38        -2.3730   -5.1040   -0.6590 hc        1 MOL      0.025870
     91 H39        -3.6500   -6.1410   -2.5120 hn        1 MOL      0.347165
     92 H40        -5.1160   -6.9030   -2.0830 hn        1 MOL      0.347165
     93 N9         -0.9780   -3.1990    2.8910 n         1 MOL     -0.296077
     94 C30         0.1080   -2.1840    3.2050 c3        1 MOL     -0.042166
     95 C31         1.3150   -2.7560    2.5950 c         1 MOL      0.420583
     96 O16         1.8420   -3.7650    3.0470 o         1 MOL     -0.572967
     97 C32         0.2890   -1.9700    4.7210 c3        1 MOL      0.377376
     98 C33         1.4150   -0.9340    4.9690 c3        1 MOL     -0.385171
     99 C34        -0.9950   -1.3390    5.4380 c3        1 MOL     -0.385171
    100 H41        -1.0850   -3.9120    3.6020 hn        1 MOL      0.228883
    101 H42        -0.0810   -1.2360    2.7000 h1        1 MOL     -0.218796
    102 H43         0.5430   -2.9230    5.1890 hc        1 MOL     -0.028881
    103 H44         1.2310   -0.4130    5.9010 hc        1 MOL      0.084981
    104 H45         2.3650   -1.4790    4.9590 hc        1 MOL      0.084981
    105 H46         1.3420   -0.1230    4.2490 hc        1 MOL      0.084981
    106 H47        -0.7980   -1.2810    6.5040 hc        1 MOL      0.084981
    107 H48        -1.1180   -0.3370    5.0290 hc        1 MOL      0.084981
    108 H49        -1.8090   -2.0540    5.3410 hc        1 MOL      0.084981
    109 N10         1.7870   -2.1310    1.5100 n         1 MOL      0.004741
    110 C35         2.9380   -2.5480    0.7300 c3        1 MOL     -0.019956
    111 C36         4.2900   -1.9860    1.2230 c         1 MOL      0.548718
    112 O17         4.4170   -1.1070    2.0900 o         1 MOL     -0.544550
    113 C37         2.6250   -2.2850   -0.7730 c3        1 MOL     -0.022155
    114 C38         2.9180   -0.9260   -1.3340 c         1 MOL      0.591535
    115 N11         1.9310   -0.0630   -1.4960 n         1 MOL     -0.640710
    116 O18         4.0080   -0.6080   -1.6140 o         1 MOL     -0.551395
    117 H50         1.3170   -1.3200    1.1380 hn        1 MOL      0.146645
    118 H51         2.9160   -3.6270    0.8300 h1        1 MOL      0.024940
    119 H52         1.6330   -2.6410   -1.0630 hc        1 MOL      0.018232
    120 H53         3.2950   -2.9630   -1.2990 hc        1 MOL      0.018232
    121 H54         0.9590   -0.3150   -1.4060 hn        1 MOL      0.348845
    122 H55         2.1460    0.8170   -1.9410 hn        1 MOL      0.348845
    123 N12         5.3490   -2.5670    0.6030 n         1 MOL     -0.479309
    124 C39         6.8010   -2.3140    0.8970 c3        1 MOL      0.198256
    125 C40         7.1960   -0.8290    0.6800 c         1 MOL      0.409567
    126 O19         7.9950   -0.3510    1.4710 o         1 MOL     -0.589902
    127 C41         7.7180   -3.2940    0.1820 c3        1 MOL     -0.245965
    128 C42         7.7330   -3.3170   -1.3510 ca        1 MOL      0.149880
    129 C43         8.6980   -2.6040   -2.0810 ca        1 MOL     -0.247274
    130 C44         6.7220   -3.9730   -2.0680 ca        1 MOL     -0.247274
    131 C45         8.6550   -2.4760   -3.4780 ca        1 MOL     -0.273987
    132 C46         6.7190   -3.9550   -3.4850 ca        1 MOL     -0.273987
    133 C47         7.7060   -3.2010   -4.1700 ca        1 MOL      0.429052
    134 O20         7.7320   -3.3120   -5.5260 oh        1 MOL     -0.553245
    135 H56         5.1520   -3.2570   -0.1100 hn        1 MOL      0.255512
    136 H57         6.9440   -2.4720    1.9620 h1        1 MOL      0.065385
    137 H58         7.4350   -4.3120    0.4500 hc        1 MOL      0.060600
    138 H59         8.7250   -3.0650    0.5130 hc        1 MOL      0.060600
    139 H60         9.4080   -2.1640   -1.4010 ha        1 MOL      0.150143
    140 H61         5.8990   -4.4530   -1.5620 ha        1 MOL      0.150143
    141 H62         9.3420   -1.8170   -3.9940 ha        1 MOL      0.164061
    142 H63         5.9480   -4.5330   -3.9850 ha        1 MOL      0.164061
    143 H64         8.4190   -2.8120   -5.9660 ho        1 MOL      0.398690
    144 N13         6.4300    0.0150   -0.0110 n         1 MOL     -0.033609
    145 C48         6.6340    1.4620   -0.1700 c3        1 MOL     -0.266272
    146 C49         5.5930    2.3460    0.5580 c         1 MOL      0.490964
    147 O21         5.7000    3.5690    0.5610 o         1 MOL     -0.555177
    148 C50         6.6130    1.8320   -1.6910 c3        1 MOL      0.070000
    149 C51         7.6730    1.2030   -2.6160 c3        1 MOL     -0.333166
    150 C52         7.3730    1.5550   -4.0570 c         1 MOL      0.678957
    151 O22         7.7780    2.6530   -4.4720 o         1 MOL     -0.722230
    152 O23         6.7870    0.7410   -4.8840 o         1 MOL     -0.722230
    153 H65         5.7120   -0.4280   -0.5680 hn        1 MOL      0.173628
    154 H66         7.6100    1.7590    0.2070 h1        1 MOL      0.136822
    155 H67         6.7160    2.9090   -1.8550 hc        1 MOL      0.050758
    156 H68         5.5690    1.6550   -1.9500 hc        1 MOL      0.050758
    157 H69         7.5840    0.1180   -2.5680 hc        1 MOL      0.074015
    158 H70         8.7170    1.4390   -2.3940 hc        1 MOL      0.074015
    159 N14         4.6320    1.7380    1.3060 n         1 MOL     -0.138506
    160 C53         3.8270    2.3350    2.3710 c3        1 MOL     -0.333239
    161 C54         4.3300    2.1970    3.8380 c         1 MOL      0.515313
    162 O24         3.6530    2.7300    4.7180 o         1 MOL     -0.544794
    163 C55         2.4360    1.7340    2.2340 c3        1 MOL      0.127192
    164 C56         1.6270    2.2910    1.0780 c3        1 MOL     -0.168717
    165 C57         0.3070    1.5460    0.8080 c         1 MOL      0.495371
    166 O25         0.0800    0.3700    1.1350 o         1 MOL     -0.628180
    167 O26        -0.5790    2.0680    0.1040 o         1 MOL     -0.628180
    168 H71         4.6790    0.7420    1.1440 hn        1 MOL      0.065559
    169 H72         3.7160    3.4040    2.1880 h1        1 MOL      0.150657
    170 H73         1.8450    1.9850    3.1060 hc        1 MOL      0.079457
    171 H74         2.4180    0.6500    2.3030 hc        1 MOL      0.079457
    172 H75         2.1320    2.3420    0.1180 hc        1 MOL      0.066204
    173 H76         1.4120    3.3140    1.3710 hc        1 MOL      0.066204
    174 N15         5.4860    1.5840    4.1480 n         1 MOL     -0.250486
    175 C58         6.0600    1.6240    5.5210 c3        1 MOL     -0.081183
    176 H77         7.1150    1.8960    5.4660 h1        1 MOL      0.056102
    177 H78         5.5260    2.3620    6.1180 h1        1 MOL      0.056102
    178 H79         5.9630    0.6420    5.9850 h1        1 MOL      0.056102
    179 H80         6.0150    1.3060    3.3350 hn        1 MOL      0.258160
    180 Ca1        -2.3860    0.0570    0.1450 Ca        1 MOL      1.699833
    181 O27        -4.7460   -0.5440    1.5550 oh        1 MOL     -0.844593
    182 H81        -4.5690   -0.2170    2.4370 ho        1 MOL      0.413849
    183 H82        -5.6620   -0.3050    1.4020 ho        1 MOL      0.413849
    184 O28        -2.4150    0.1460    2.8600 oh        1 MOL     -0.844593
    185 H83        -2.7570   -0.2950    3.6370 ho        1 MOL      0.413849
    186 H84        -1.7880    0.7920    3.2060 ho        1 MOL      0.413849
    187 O29        -0.5940   -1.2990   -1.9000 oh        1 MOL     -0.844593
    188 H85        -1.2120   -2.0240   -1.8230 ho        1 MOL      0.413849
    189 H86        -0.7840   -0.8990   -2.7450 ho        1 MOL      0.413849
@<TRIPOS>BOND
     1    1    2 1   
     2    1    4 1   
     3    1    5 1   
     4    1    6 1   
     5    2    3 2   
     6    2    7 1   
     7    7    8 1   
     8    7   15 1   
     9    8    9 1   
    10    8   11 1   
    11    8   16 1   
    12    9   10 2   
    13    9   19 1   
    14   11   12 1   
    15   11   17 1   
    16   11   18 1   
    17   12   13 1   
    18   12   14 1   
    19   19   20 1   
    20   19   27 1   
    21   20   21 1   
    22   20   23 1   
    23   20   28 1   
    24   21   22 2   
    25   21   38 1   
    26   23   24 1   
    27   23   25 1   
    28   23   29 1   
    29   24   26 1   
    30   24   30 1   
    31   24   31 1   
    32   25   32 1   
    33   25   33 1   
    34   25   34 1   
    35   26   35 1   
    36   26   36 1   
    37   26   37 1   
    38   38   39 1   
    39   38   46 1   
    40   39   40 1   
    41   39   42 1   
    42   39   47 1   
    43   40   41 2   
    44   40   50 1   
    45   42   43 1   
    46   42   48 1   
    47   42   49 1   
    48   43   44 1   
    49   43   45 1   
    50   50   51 1   
    51   50   54 1   
    52   51   52 1   
    53   51   55 1   
    54   51   56 1   
    55   52   53 2   
    56   52   57 1   
    57   57   58 1   
    58   57   65 1   
    59   58   59 1   
    60   58   61 1   
    61   58   66 1   
    62   59   60 2   
    63   59   69 1   
    64   61   62 1   
    65   61   67 1   
    66   61   68 1   
    67   62   63 1   
    68   62   64 1   
    69   69   70 1   
    70   69   73 1   
    71   70   71 1   
    72   70   74 1   
    73   70   75 1   
    74   71   72 2   
    75   71   76 1   
    76   76   77 1   
    77   76   85 1   
    78   77   78 1   
    79   77   80 1   
    80   77   86 1   
    81   78   79 2   
    82   78   93 1   
    83   80   81 1   
    84   80   87 1   
    85   80   88 1   
    86   81   82 1   
    87   81   89 1   
    88   81   90 1   
    89   82   83 1   
    90   82   84 2   
    91   83   91 1   
    92   83   92 1   
    93   93   94 1   
    94   93  100 1   
    95   94   95 1   
    96   94   97 1   
    97   94  101 1   
    98   95   96 2   
    99   95  109 1   
   100   97   98 1   
   101   97   99 1   
   102   97  102 1   
   103   98  103 1   
   104   98  104 1   
   105   98  105 1   
   106   99  106 1   
   107   99  107 1   
   108   99  108 1   
   109  109  110 1   
   110  109  117 1   
   111  110  111 1   
   112  110  113 1   
   113  110  118 1   
   114  111  112 2   
   115  111  123 1   
   116  113  114 1   
   117  113  119 1   
   118  113  120 1   
   119  114  115 1   
   120  114  116 2   
   121  115  121 1   
   122  115  122 1   
   123  123  124 1   
   124  123  135 1   
   125  124  125 1   
   126  124  127 1   
   127  124  136 1   
   128  125  126 2   
   129  125  144 1   
   130  127  128 1   
   131  127  137 1   
   132  127  138 1   
   133  128  129 ar  
   134  128  130 ar  
   135  129  131 ar  
   136  129  139 1   
   137  130  132 ar  
   138  130  140 1   
   139  131  133 ar  
   140  131  141 1   
   141  132  133 ar  
   142  132  142 1   
   143  133  134 1   
   144  134  143 1   
   145  144  145 1   
   146  144  153 1   
   147  145  146 1   
   148  145  148 1   
   149  145  154 1   
   150  146  147 2   
   151  146  159 1   
   152  148  149 1   
   153  148  155 1   
   154  148  156 1   
   155  149  150 1   
   156  149  157 1   
   157  149  158 1   
   158  150  151 1   
   159  150  152 1   
   160  159  160 1   
   161  159  168 1   
   162  160  161 1   
   163  160  163 1   
   164  160  169 1   
   165  161  162 2   
   166  161  174 1   
   167  163  164 1   
   168  163  170 1   
   169  163  171 1   
   170  164  165 1   
   171  164  172 1   
   172  164  173 1   
   173  165  166 1   
   174  165  167 1   
   175  174  175 1   
   176  174  179 1   
   177  175  176 1   
   178  175  177 1   
   179  175  178 1   
   180  181  182 1   
   181  181  183 1   
   182  184  185 1   
   183  184  186 1   
   184  187  188 1   
   185  187  189 1   
@<TRIPOS>SUBSTRUCTURE
     1 MOL         1 TEMP              0 ****  ****    0 ROOT
