@<TRIPOS>MOLECULE
MOL
  186   183     1     0     0
SMALL
resp


@<TRIPOS>ATOM
      1 C1          1.2050   -2.3250    6.2690 c3        1 MOL     -0.269979
      2 C2          1.3510   -2.2510    4.7680 c         1 MOL      0.820184
      3 O1          0.4260   -2.6400    4.0170 o         1 MOL     -0.605647
      4 H1          2.0230   -2.9120    6.6850 hc        1 MOL      0.055464
      5 H2          1.2320   -1.3180    6.6880 hc        1 MOL      0.055464
      6 H3          0.2560   -2.7980    6.5200 hc        1 MOL      0.055464
      7 N1          2.4790   -1.7420    4.3140 n         1 MOL     -0.715563
      8 C3          2.8720   -1.7630    2.8940 c3        1 MOL      0.004154
      9 C4          3.0740   -3.2000    2.5700 c         1 MOL      0.601579
     10 O2          3.6280   -4.0070    3.2480 o         1 MOL     -0.574112
     11 C5          4.1700   -0.9530    2.7600 c3        1 MOL     -0.071412
     12 C6          4.7130   -0.7440    1.3420 c         1 MOL      0.710434
     13 O3          3.9320   -1.0340    0.3850 o         1 MOL     -0.673344
     14 O4          5.8710   -0.2720    1.1800 o         1 MOL     -0.673344
     15 H4          3.2010   -1.4910    4.9680 hn        1 MOL      0.351639
     16 H5          2.0500   -1.3590    2.3110 h1        1 MOL      0.080527
     17 H6          4.9130   -1.4070    3.4210 hc        1 MOL      0.027651
     18 H7          4.1380    0.0610    3.1770 hc        1 MOL      0.027651
     19 N2          2.5950   -3.5720    1.3670 n         1 MOL     -0.430458
     20 C7          2.7370   -4.9400    0.8800 c3        1 MOL      0.053952
     21 C8          3.8000   -5.0320   -0.2360 c         1 MOL      0.640887
     22 O5          4.3030   -6.1710   -0.4060 o         1 MOL     -0.624235
     23 C9          1.3100   -5.5480    0.5560 c3        1 MOL      0.205646
     24 C10         0.4100   -5.4680    1.8070 c3        1 MOL     -0.023437
     25 C11         1.4670   -6.9310   -0.1470 c3        1 MOL     -0.214440
     26 C12        -1.0590   -5.8580    1.5020 c3        1 MOL     -0.114307
     27 H8          2.0610   -2.8890    0.8470 hn        1 MOL      0.189341
     28 H9          3.1020   -5.6200    1.6570 h1        1 MOL      0.027395
     29 H10         0.9010   -4.8700   -0.1950 hc        1 MOL     -0.000364
     30 H11         0.3580   -4.5170    2.3270 hc        1 MOL      0.023070
     31 H12         0.7550   -6.0790    2.6470 hc        1 MOL      0.023070
     32 H13         2.0350   -7.5820    0.5060 hc        1 MOL      0.036773
     33 H14         0.5200   -7.4390   -0.3230 hc        1 MOL      0.036773
     34 H15         1.9490   -6.7210   -1.1060 hc        1 MOL      0.036773
     35 H16        -1.5750   -5.8850    2.4600 hc        1 MOL      0.013751
     36 H17        -1.6580   -5.1760    0.8960 hc        1 MOL      0.013751
     37 H18        -1.0890   -6.8530    1.0540 hc        1 MOL      0.013751
     38 N3          4.2800   -3.9450   -0.8190 n         1 MOL     -0.503966
     39 C13         5.1490   -3.9290   -2.0080 c3        1 MOL      0.036176
     40 C14         6.4290   -2.9900   -2.0590 c         1 MOL      0.411055
     41 O6          6.9920   -2.6380   -3.1030 o         1 MOL     -0.454163
     42 C15         4.3500   -3.8280   -3.3080 c3        1 MOL     -0.203870
     43 C16         3.2900   -2.6830   -3.4270 c         1 MOL      0.829931
     44 O7          3.1340   -1.9160   -2.4640 o         1 MOL     -0.739876
     45 O8          2.5120   -2.6540   -4.4060 o         1 MOL     -0.739876
     46 H19         4.0230   -3.0070   -0.5600 hn        1 MOL      0.300707
     47 H20         5.6180   -4.9110   -2.1470 h1        1 MOL      0.079202
     48 H21         3.8560   -4.7990   -3.3570 hc        1 MOL      0.040806
     49 H22         5.0230   -3.7020   -4.1590 hc        1 MOL      0.040806
     50 N4          6.8620   -2.5950   -0.8620 n         1 MOL     -0.288140
     51 C17         8.2090   -2.0310   -0.6150 c3        1 MOL     -0.193543
     52 C18         8.4090   -0.6130   -1.3010 c         1 MOL      0.447795
     53 O9          9.4850   -0.3460   -1.8930 o         1 MOL     -0.567101
     54 H23         6.2730   -2.7820   -0.0620 hn        1 MOL      0.245676
     55 H24         8.9380   -2.7590   -0.9520 h1        1 MOL      0.106999
     56 H25         8.2820   -1.9570    0.4700 h1        1 MOL      0.106999
     57 N5          7.4300    0.2990   -1.1440 n         1 MOL     -0.196419
     58 C19         7.4060    1.7090   -1.6970 c3        1 MOL      0.073199
     59 C20         7.3140    2.7130   -0.5910 c         1 MOL      0.369592
     60 O10         7.3320    3.8920   -0.7470 o         1 MOL     -0.521369
     61 C21         6.3140    2.0120   -2.7620 c3        1 MOL     -0.171383
     62 C22         4.9130    1.5330   -2.3140 c         1 MOL      0.706473
     63 O11         4.2750    0.7730   -3.0610 o         1 MOL     -0.722466
     64 O12         4.3930    1.8170   -1.2490 o         1 MOL     -0.722466
     65 H26         6.5630    0.0160   -0.7000 hn        1 MOL      0.203545
     66 H27         8.3490    1.8680   -2.2390 h1        1 MOL      0.075522
     67 H28         6.6070    1.4330   -3.6310 hc        1 MOL      0.050595
     68 H29         6.3140    3.0600   -3.0580 hc        1 MOL      0.050595
     69 N6          7.0600    2.3120    0.6950 n         1 MOL     -0.315733
     70 C23         6.8920    3.1490    1.7840 c3        1 MOL      0.019697
     71 C24         5.6210    4.0240    1.8100 c         1 MOL      0.528603
     72 O13         5.5570    4.9510    2.5790 o         1 MOL     -0.605157
     73 H30         6.7960    1.3350    0.7640 hn        1 MOL      0.172052
     74 H31         7.7090    3.8670    1.8410 h1        1 MOL      0.046074
     75 H32         6.9420    2.6580    2.7520 h1        1 MOL      0.046074
     76 N7          4.6220    3.7380    0.9680 n         1 MOL     -0.369227
     77 C25         3.2160    4.2500    1.1290 c3        1 MOL      0.018407
     78 C26         2.1700    3.1150    1.2630 c         1 MOL      0.657372
     79 O14         2.3070    1.9890    0.7080 o         1 MOL     -0.687321
     80 C27         2.9390    5.2440    0.0730 c3        1 MOL      0.032199
     81 C28         3.8510    6.5530    0.2170 c3        1 MOL     -0.216092
     82 C29         3.4280    7.5510   -0.8020 c         1 MOL      0.539037
     83 N8          3.7470    7.4540   -2.0600 n         1 MOL     -0.713291
     84 O15         2.5750    8.3850   -0.5500 o         1 MOL     -0.575498
     85 H33         4.7360    2.9350    0.3750 hn        1 MOL      0.298238
     86 H34         3.1770    4.7840    2.0780 h1        1 MOL      0.058461
     87 H35         1.9050    5.5720    0.1760 hc        1 MOL      0.052718
     88 H36         3.0980    4.6940   -0.8610 hc        1 MOL      0.052718
     89 H37         4.9070    6.3220    0.0650 hc        1 MOL      0.091407
     90 H38         3.7340    6.9500    1.2260 hc        1 MOL      0.091407
     91 H39         4.4350    6.7810   -2.3790 hn        1 MOL      0.344779
     92 H40         3.4180    8.2680   -2.5550 hn        1 MOL      0.344779
     93 N9          1.0140    3.3920    1.9360 n         1 MOL     -0.577196
     94 C30        -0.2160    2.5410    1.9610 c3        1 MOL      0.260376
     95 C31        -1.3440    3.0980    1.0990 c         1 MOL      0.325468
     96 O16        -1.6380    4.2840    1.1720 o         1 MOL     -0.557698
     97 C32        -0.6540    2.2600    3.4050 c3        1 MOL      0.093063
     98 C33        -2.0650    1.6560    3.6370 c3        1 MOL     -0.220902
     99 C34         0.4430    1.4780    4.1360 c3        1 MOL     -0.220902
    100 H41         0.8190    4.3610    2.1590 hn        1 MOL      0.288370
    101 H42         0.0510    1.5440    1.6130 h1        1 MOL      0.068225
    102 H43        -0.6160    3.2080    3.9460 hc        1 MOL     -0.014868
    103 H44        -2.3790    1.6230    4.6830 hc        1 MOL      0.051796
    104 H45        -2.8620    2.1040    3.0420 hc        1 MOL      0.051796
    105 H46        -1.9210    0.6110    3.3560 hc        1 MOL      0.051796
    106 H47         1.3160    2.1370    4.1930 hc        1 MOL      0.051796
    107 H48         0.2470    1.1980    5.1690 hc        1 MOL      0.051796
    108 H49         0.6200    0.5680    3.5560 hc        1 MOL      0.051796
    109 N10        -1.9480    2.2360    0.2980 n         1 MOL     -0.062382
    110 C35        -3.0930    2.6730   -0.4700 c3        1 MOL      0.230747
    111 C36        -4.4110    2.0160    0.0470 c         1 MOL      0.249935
    112 O17        -4.3590    1.2920    1.0380 o         1 MOL     -0.261120
    113 C37        -2.8840    2.4570   -1.9330 c3        1 MOL     -0.304421
    114 C38        -3.3130    1.0890   -2.4180 c         1 MOL      0.540306
    115 N11        -2.4880    0.1010   -2.2800 n         1 MOL     -0.540642
    116 O18        -4.3750    0.9620   -2.9910 o         1 MOL     -0.525268
    117 H50        -1.5330    1.3280    0.1710 hn        1 MOL     -0.009607
    118 H51        -3.1090    3.7490   -0.2860 h1        1 MOL      0.046553
    119 H52        -1.8650    2.6540   -2.2580 hc        1 MOL      0.084056
    120 H53        -3.5160    3.2400   -2.3670 hc        1 MOL      0.084056
    121 H54        -1.6180    0.1790   -1.7750 hn        1 MOL      0.319018
    122 H55        -2.6460   -0.7740   -2.7480 hn        1 MOL      0.319018
    123 N12        -5.5410    2.3530   -0.5410 n         1 MOL     -0.500945
    124 C39        -6.8760    1.9490   -0.0540 c3        1 MOL      0.321393
    125 C40        -7.0170    0.4120    0.0130 c         1 MOL      0.473091
    126 O19        -7.2830   -0.1590    1.0600 o         1 MOL     -0.544375
    127 C41        -8.1470    2.5600   -0.7450 c3        1 MOL     -0.291246
    128 C42        -9.4680    2.0190   -0.2810 ca        1 MOL      0.222931
    129 C43        -9.8130    2.2470    1.0260 ca        1 MOL     -0.272980
    130 C44       -10.3880    1.4250   -1.1450 ca        1 MOL     -0.272980
    131 C45       -11.0920    1.8500    1.5270 ca        1 MOL     -0.155130
    132 C46       -11.6990    1.0380   -0.7180 ca        1 MOL     -0.155130
    133 C47       -12.0120    1.2890    0.6360 ca        1 MOL      0.241499
    134 O20       -13.1850    0.8520    1.1360 oh        1 MOL     -0.528499
    135 H56        -5.5430    3.1010   -1.2240 hn        1 MOL      0.295105
    136 H57        -6.8940    2.3140    0.9630 h1        1 MOL      0.001502
    137 H58        -8.0500    2.4460   -1.8250 hc        1 MOL      0.083956
    138 H59        -8.2220    3.6350   -0.5830 hc        1 MOL      0.083956
    139 H60        -9.1350    2.6730    1.7560 ha        1 MOL      0.156423
    140 H61       -10.1660    1.1300   -2.1590 ha        1 MOL      0.156423
    141 H62       -11.3260    1.8980    2.5850 ha        1 MOL      0.123399
    142 H63       -12.4390    0.6930   -1.4280 ha        1 MOL      0.123399
    143 H64       -13.6770    0.2670    0.5480 ho        1 MOL      0.388335
    144 N13        -6.4470   -0.1760   -1.0600 n         1 MOL     -0.376536
    145 C48        -6.3860   -1.6520   -1.2240 c3        1 MOL      0.031792
    146 C49        -5.3990   -2.3910   -0.3150 c         1 MOL      0.220946
    147 O21        -5.3700   -3.5930   -0.2200 o         1 MOL     -0.505913
    148 C50        -6.2410   -1.9640   -2.7170 c3        1 MOL      0.127946
    149 C51        -7.5400   -1.4310   -3.4500 c3        1 MOL     -0.032146
    150 C52        -7.6160   -1.7740   -4.9610 c         1 MOL      0.694321
    151 O22        -8.4560   -1.2000   -5.6800 o         1 MOL     -0.747675
    152 O23        -6.6950   -2.4050   -5.4440 o         1 MOL     -0.747675
    153 H65        -6.0320    0.3960   -1.7850 hn        1 MOL      0.260983
    154 H66        -7.3640   -2.0250   -0.9090 h1        1 MOL      0.110016
    155 H67        -6.2750   -3.0430   -2.8210 hc        1 MOL     -0.013840
    156 H68        -5.3410   -1.4700   -3.0940 hc        1 MOL     -0.013840
    157 H69        -7.7440   -0.3680   -3.3480 hc        1 MOL     -0.058607
    158 H70        -8.3460   -1.9490   -2.9240 hc        1 MOL     -0.058607
    159 N14        -4.6090   -1.6630    0.4480 n         1 MOL      0.068451
    160 C53        -3.6800   -2.1630    1.4360 c3        1 MOL      0.038521
    161 C54        -4.1440   -1.9220    2.8450 c         1 MOL      0.340550
    162 O24        -3.9500   -2.7730    3.7130 o         1 MOL     -0.548407
    163 C55        -2.2230   -1.6430    1.2400 c3        1 MOL      0.167288
    164 C56        -1.4940   -2.1760   -0.0010 c3        1 MOL      0.061946
    165 C57        -0.1790   -1.3720   -0.1460 c         1 MOL      0.533171
    166 O25         0.9850   -1.8770   -0.3550 o         1 MOL     -0.638754
    167 O26        -0.2800   -0.1530   -0.3500 o         1 MOL     -0.638754
    168 H71        -4.6400   -0.6530    0.3720 hn        1 MOL     -0.040582
    169 H72        -3.5840   -3.2430    1.2760 h1        1 MOL      0.056528
    170 H73        -1.6310   -1.9760    2.1020 hc        1 MOL     -0.001530
    171 H74        -2.1780   -0.5490    1.2720 hc        1 MOL     -0.001530
    172 H75        -2.2470   -1.9840   -0.7650 hc        1 MOL     -0.033487
    173 H76        -1.3160   -3.2510    0.0680 hc        1 MOL     -0.033487
    174 N15        -4.6950   -0.7450    3.0750 n         1 MOL      0.038258
    175 C58        -5.3340   -0.4420    4.3530 c3        1 MOL     -0.301314
    176 H77        -4.7160   -0.8210    5.1670 h1        1 MOL      0.097941
    177 H78        -5.4490    0.6370    4.4570 h1        1 MOL      0.097941
    178 H79        -6.3150   -0.9170    4.3910 h1        1 MOL      0.097941
    179 H80        -4.7440   -0.0890    2.3070 hn        1 MOL      0.030774
    180 Ca1         2.3640    0.1710   -1.0830 Ca        1 MOL      1.753371
    181 O27         1.0000   -0.2220   -3.7090 oh        1 MOL     -0.854031
    182 H81         1.7100   -0.8040   -4.0020 ho        1 MOL      0.404934
    183 H82         0.2580   -0.4450   -4.2790 ho        1 MOL      0.404934
    184 O28         1.1910    2.2890   -2.5420 oh        1 MOL     -0.854031
    185 H83         1.3520    3.0290   -3.1260 ho        1 MOL      0.404934
    186 H84         0.9180    1.5770   -3.1190 ho        1 MOL      0.404934
@<TRIPOS>BOND
     1    1    2 1   
     2    1    4 1   
     3    1    5 1   
     4    1    6 1   
     5    2    3 2   
     6    2    7 1   
     7    7    8 1   
     8    7   15 1   
     9    8    9 1   
    10    8   11 1   
    11    8   16 1   
    12    9   10 2   
    13    9   19 1   
    14   11   12 1   
    15   11   17 1   
    16   11   18 1   
    17   12   13 1   
    18   12   14 1   
    19   19   20 1   
    20   19   27 1   
    21   20   21 1   
    22   20   23 1   
    23   20   28 1   
    24   21   22 2   
    25   21   38 1   
    26   23   24 1   
    27   23   25 1   
    28   23   29 1   
    29   24   26 1   
    30   24   30 1   
    31   24   31 1   
    32   25   32 1   
    33   25   33 1   
    34   25   34 1   
    35   26   35 1   
    36   26   36 1   
    37   26   37 1   
    38   38   39 1   
    39   38   46 1   
    40   39   40 1   
    41   39   42 1   
    42   39   47 1   
    43   40   41 2   
    44   40   50 1   
    45   42   43 1   
    46   42   48 1   
    47   42   49 1   
    48   43   44 1   
    49   43   45 1   
    50   50   51 1   
    51   50   54 1   
    52   51   52 1   
    53   51   55 1   
    54   51   56 1   
    55   52   53 2   
    56   52   57 1   
    57   57   58 1   
    58   57   65 1   
    59   58   59 1   
    60   58   61 1   
    61   58   66 1   
    62   59   60 2   
    63   59   69 1   
    64   61   62 1   
    65   61   67 1   
    66   61   68 1   
    67   62   63 1   
    68   62   64 1   
    69   69   70 1   
    70   69   73 1   
    71   70   71 1   
    72   70   74 1   
    73   70   75 1   
    74   71   72 2   
    75   71   76 1   
    76   76   77 1   
    77   76   85 1   
    78   77   78 1   
    79   77   80 1   
    80   77   86 1   
    81   78   79 2   
    82   78   93 1   
    83   80   81 1   
    84   80   87 1   
    85   80   88 1   
    86   81   82 1   
    87   81   89 1   
    88   81   90 1   
    89   82   83 1   
    90   82   84 2   
    91   83   91 1   
    92   83   92 1   
    93   93   94 1   
    94   93  100 1   
    95   94   95 1   
    96   94   97 1   
    97   94  101 1   
    98   95   96 2   
    99   95  109 1   
   100   97   98 1   
   101   97   99 1   
   102   97  102 1   
   103   98  103 1   
   104   98  104 1   
   105   98  105 1   
   106   99  106 1   
   107   99  107 1   
   108   99  108 1   
   109  109  110 1   
   110  109  117 1   
   111  110  111 1   
   112  110  113 1   
   113  110  118 1   
   114  111  112 2   
   115  111  123 1   
   116  113  114 1   
   117  113  119 1   
   118  113  120 1   
   119  114  115 1   
   120  114  116 2   
   121  115  121 1   
   122  115  122 1   
   123  123  124 1   
   124  123  135 1   
   125  124  125 1   
   126  124  127 1   
   127  124  136 1   
   128  125  126 2   
   129  125  144 1   
   130  127  128 1   
   131  127  137 1   
   132  127  138 1   
   133  128  129 ar  
   134  128  130 ar  
   135  129  131 ar  
   136  129  139 1   
   137  130  132 ar  
   138  130  140 1   
   139  131  133 ar  
   140  131  141 1   
   141  132  133 ar  
   142  132  142 1   
   143  133  134 1   
   144  134  143 1   
   145  144  145 1   
   146  144  153 1   
   147  145  146 1   
   148  145  148 1   
   149  145  154 1   
   150  146  147 2   
   151  146  159 1   
   152  148  149 1   
   153  148  155 1   
   154  148  156 1   
   155  149  150 1   
   156  149  157 1   
   157  149  158 1   
   158  150  151 1   
   159  150  152 1   
   160  159  160 1   
   161  159  168 1   
   162  160  161 1   
   163  160  163 1   
   164  160  169 1   
   165  161  162 2   
   166  161  174 1   
   167  163  164 1   
   168  163  170 1   
   169  163  171 1   
   170  164  165 1   
   171  164  172 1   
   172  164  173 1   
   173  165  166 1   
   174  165  167 1   
   175  174  175 1   
   176  174  179 1   
   177  175  176 1   
   178  175  177 1   
   179  175  178 1   
   180  181  182 1   
   181  181  183 1   
   182  184  185 1   
   183  184  186 1   
@<TRIPOS>SUBSTRUCTURE
     1 MOL         1 TEMP              0 ****  ****    0 ROOT
