@<TRIPOS>MOLECULE
MOL
  175   173     1     0     0
SMALL
resp


@<TRIPOS>ATOM
      1 C1          1.3600   -2.6740    6.1780 c3        1 MOL     -0.244286
      2 C2          1.3930   -2.4890    4.6780 c         1 MOL      0.786295
      3 O1          0.4070   -2.8100    3.9920 o         1 MOL     -0.604075
      4 H1          2.0560   -3.4630    6.4620 hc        1 MOL      0.048075
      5 H2          1.6490   -1.7420    6.6660 hc        1 MOL      0.048075
      6 H3          0.3510   -2.9490    6.4890 hc        1 MOL      0.048075
      7 N1          2.5630   -2.0530    4.1940 n         1 MOL     -0.670947
      8 C3          2.8340   -1.9200    2.7900 c3        1 MOL      0.235155
      9 C4          3.3410   -3.2720    2.2590 c         1 MOL      0.503972
     10 O2          4.2220   -3.9710    2.7710 o         1 MOL     -0.586570
     11 C5          4.0030   -0.9070    2.7880 c3        1 MOL     -0.194684
     12 C6          4.3350   -0.4770    1.3780 c         1 MOL      0.724044
     13 O3          4.9740    0.5910    1.2800 o         1 MOL     -0.661735
     14 O4          3.9900   -1.1710    0.4250 o         1 MOL     -0.661735
     15 H4          3.2740   -1.9100    4.9050 hn        1 MOL      0.323562
     16 H5          1.9270   -1.5370    2.3150 h1        1 MOL     -0.001716
     17 H6          4.8270   -1.3420    3.3510 hc        1 MOL      0.040899
     18 H7          3.7780    0.0940    3.1700 hc        1 MOL      0.040899
     19 N2          2.6630   -3.7220    1.1960 n         1 MOL     -0.320518
     20 C7          2.9290   -4.9190    0.4810 c3        1 MOL      0.215162
     21 C8          4.0290   -4.8290   -0.6380 c         1 MOL      0.424976
     22 O5          4.6190   -5.9430   -0.8380 o         1 MOL     -0.580962
     23 C9          1.5520   -5.4040    0.0380 c3        1 MOL     -0.353882
     24 H8          1.9340   -3.1050    0.8680 hn        1 MOL      0.199063
     25 H9          3.4040   -5.6210    1.1680 h1        1 MOL      0.033867
     26 H10         0.8740   -5.4750    0.8820 hc        1 MOL      0.086561
     27 H11         1.2060   -4.6880   -0.7050 hc        1 MOL      0.086561
     28 H12         1.6890   -6.3600   -0.4490 hc        1 MOL      0.086561
     29 N3          4.3070   -3.6600   -1.1760 n         1 MOL     -0.182244
     30 C10         5.4440   -3.5520   -2.1360 c3        1 MOL     -0.038102
     31 C11         6.6720   -2.8320   -1.6080 c         1 MOL      0.430583
     32 O6          7.6750   -2.9370   -2.2970 o         1 MOL     -0.544220
     33 C12         5.0160   -2.9610   -3.5670 c3        1 MOL     -0.139261
     34 C13         4.0010   -1.8290   -3.6000 c         1 MOL      0.678793
     35 O7          3.6090   -1.4340   -4.7720 o         1 MOL     -0.712458
     36 O8          3.6110   -1.1960   -2.5800 o         1 MOL     -0.712458
     37 H13         3.8780   -2.7950   -0.8810 hn        1 MOL      0.108416
     38 H14         5.7390   -4.5590   -2.4670 h1        1 MOL      0.097898
     39 H15         4.5650   -3.7570   -4.1600 hc        1 MOL      0.054085
     40 H16         5.8700   -2.5910   -4.1340 hc        1 MOL      0.054085
     41 N4          6.5690   -2.0940   -0.5300 n         1 MOL     -0.226665
     42 C14         7.7290   -1.3630    0.0530 c3        1 MOL      0.004602
     43 C15         7.9000    0.0300   -0.5440 c         1 MOL      0.441956
     44 O9          9.0420    0.5030   -0.6900 o         1 MOL     -0.575672
     45 H17         5.6810   -2.1130   -0.0550 hn        1 MOL      0.165773
     46 H18         8.6530   -1.9390    0.0210 h1        1 MOL      0.059600
     47 H19         7.5330   -1.2260    1.1200 h1        1 MOL      0.059600
     48 N5          6.8130    0.6560   -0.9720 n         1 MOL     -0.144297
     49 C16         6.7650    1.9230   -1.7120 c3        1 MOL     -0.056053
     50 C17         6.5000    3.1430   -0.7870 c         1 MOL      0.484699
     51 O10         6.7390    4.2630   -1.1410 o         1 MOL     -0.562036
     52 C18         5.7140    1.7440   -2.8970 c3        1 MOL     -0.130964
     53 C19         4.2950    2.2710   -2.4790 c         1 MOL      0.492346
     54 N6          3.6440    3.2190   -3.1700 n         1 MOL     -0.691202
     55 O11         3.7620    1.8860   -1.4670 o         1 MOL     -0.613994
     56 H20         5.9250    0.1870   -0.8370 hn        1 MOL      0.174433
     57 H21         7.6980    2.2070   -2.2000 h1        1 MOL      0.110291
     58 H22         5.6420    0.6900   -3.1380 hc        1 MOL      0.090009
     59 H23         6.1090    2.3220   -3.7400 hc        1 MOL      0.090009
     60 H24         4.1520    3.6430   -3.9270 hn        1 MOL      0.343185
     61 H25         2.7910    3.6290   -2.7950 hn        1 MOL      0.343185
     62 N7          6.0820    2.8910    0.4740 n         1 MOL     -0.191099
     63 C20         5.9580    3.9000    1.5100 c3        1 MOL     -0.231960
     64 C21         4.5420    4.4350    1.7000 c         1 MOL      0.582014
     65 O12         4.3610    5.3790    2.4140 o         1 MOL     -0.581439
     66 H26         5.9320    1.9240    0.7270 hn        1 MOL      0.159619
     67 H27         6.6670    4.7240    1.3860 h1        1 MOL      0.119409
     68 H28         6.2460    3.4430    2.4500 h1        1 MOL      0.119409
     69 N8          3.5380    3.8210    1.0540 n         1 MOL     -0.297765
     70 C22         2.1140    4.1220    1.3020 c3        1 MOL     -0.162177
     71 C23         1.2970    2.8750    1.4520 c         1 MOL      0.732553
     72 O13         1.6620    1.7880    1.0120 o         1 MOL     -0.645969
     73 C24         1.5620    5.1130    0.1830 c3        1 MOL      0.367763
     74 C25         1.8630    6.5640    0.3140 c3        1 MOL     -0.422247
     75 O14         2.0940    4.6510   -1.0470 oh        1 MOL     -0.685443
     76 H29         3.7240    2.9920    0.5060 hn        1 MOL      0.250254
     77 H30         2.0670    4.6590    2.2480 h1        1 MOL      0.094191
     78 H31         0.4800    5.0740    0.1430 h1        1 MOL      0.088032
     79 H32         2.9760    5.0470   -1.1050 ho        1 MOL      0.432484
     80 H33         1.8050    7.1120   -0.6170 hc        1 MOL      0.111251
     81 H34         1.1660    6.9560    1.0560 hc        1 MOL      0.111251
     82 H35         2.9110    6.6920    0.5900 hc        1 MOL      0.111251
     83 N9          0.1200    3.0980    2.0260 n         1 MOL     -0.545807
     84 C26        -0.9570    2.1860    1.9660 c3        1 MOL     -0.055691
     85 C27        -1.8520    2.6820    0.8760 c         1 MOL      0.326303
     86 O15        -2.2720    3.8500    0.8370 o         1 MOL     -0.559677
     87 C28        -1.6670    1.7240    3.2870 c3        1 MOL      0.504216
     88 C29        -2.3750    2.9110    3.9800 c3        1 MOL     -0.093593
     89 C30        -0.6210    1.1160    4.2470 c3        1 MOL     -0.297628
     90 C31        -3.1160    2.3990    5.2060 c3        1 MOL     -0.149326
     91 H36         0.0650    4.0030    2.4600 hn        1 MOL      0.280376
     92 H37        -0.5190    1.2650    1.5870 h1        1 MOL      0.079397
     93 H38        -2.3910    0.9410    3.0550 hc        1 MOL     -0.141461
     94 H39        -3.0360    3.3270    3.2230 hc        1 MOL      0.027449
     95 H40        -1.6820    3.6890    4.2870 hc        1 MOL      0.027449
     96 H41        -0.1330    0.1970    3.9460 hc        1 MOL      0.048461
     97 H42         0.1260    1.8580    4.5570 hc        1 MOL      0.048461
     98 H43        -1.2340    0.8000    5.0850 hc        1 MOL      0.048461
     99 H44        -2.7240    2.7650    6.1630 hc        1 MOL      0.032173
    100 H45        -4.1530    2.7260    5.1590 hc        1 MOL      0.032173
    101 H46        -3.2390    1.3280    5.3260 hc        1 MOL      0.032173
    102 N10        -2.0180    1.8680   -0.1890 n         1 MOL     -0.171907
    103 C32        -3.0650    1.9040   -1.1630 c3        1 MOL      0.118289
    104 C33        -4.3780    1.4290   -0.5340 c         1 MOL      0.520235
    105 O16        -4.3870    0.8390    0.5320 o         1 MOL     -0.450863
    106 C34        -2.6680    0.9540   -2.2940 c3        1 MOL     -0.526712
    107 C35        -3.3780    1.1940   -3.6590 c         1 MOL      0.781274
    108 O17        -4.2200    2.1050   -3.7920 o         1 MOL     -0.718217
    109 O18        -3.0580    0.4950   -4.6720 o         1 MOL     -0.718217
    110 H47        -1.5630    0.9650   -0.1660 hn        1 MOL      0.246788
    111 H48        -3.1970    2.9370   -1.4720 h1        1 MOL      0.059423
    112 H49        -2.6010   -0.0680   -1.9090 hc        1 MOL      0.153948
    113 H50        -1.6350    1.1700   -2.5690 hc        1 MOL      0.153948
    114 N11        -5.4690    1.5630   -1.2750 n         1 MOL     -0.601187
    115 C36        -6.7680    1.1440   -0.7850 c3        1 MOL      0.405869
    116 C37        -6.9810   -0.3710   -0.5510 c         1 MOL      0.212630
    117 O19        -7.6770   -0.8480    0.3670 o         1 MOL     -0.469063
    118 C38        -7.8400    1.7810   -1.7710 c3        1 MOL     -0.369106
    119 C39        -9.2950    1.4030   -1.4380 ca        1 MOL      0.238415
    120 C40        -9.8170    1.8460   -0.1960 ca        1 MOL     -0.287805
    121 C41       -10.0820    0.5850   -2.3050 ca        1 MOL     -0.287805
    122 C42       -11.1260    1.5510    0.1530 ca        1 MOL      0.056942
    123 C43       -11.3900    0.1990   -1.8990 ca        1 MOL      0.056942
    124 C44       -11.9510    0.8200   -0.7200 ca        1 MOL     -0.322097
    125 H51        -5.5330    2.1180   -2.1140 hn        1 MOL      0.311490
    126 H52        -6.8830    1.5520    0.2170 h1        1 MOL      0.031361
    127 H53        -7.6530    1.4510   -2.7900 hc        1 MOL      0.116823
    128 H54        -7.6690    2.8620   -1.7720 hc        1 MOL      0.116823
    129 H55        -9.2240    2.3990    0.5170 ha        1 MOL      0.140159
    130 H56        -9.6470    0.2250   -3.2340 ha        1 MOL      0.140159
    131 H57       -11.4350    1.9230    1.1080 ha        1 MOL      0.076878
    132 H58       -11.9580   -0.4760   -2.5190 ha        1 MOL      0.076878
    133 H59       -12.9100    0.4580   -0.3700 ha        1 MOL      0.137534
    134 N12        -6.4870   -1.2690   -1.4540 n         1 MOL     -0.035350
    135 C45        -6.4050   -2.7040   -1.2880 c3        1 MOL      0.076294
    136 C46        -5.6200   -3.1270    0.0150 c         1 MOL      0.208388
    137 O20        -6.0100   -3.9650    0.8430 o         1 MOL     -0.471780
    138 C47        -5.7630   -3.3340   -2.6010 c3        1 MOL     -0.012714
    139 C48        -5.7060   -2.1700   -3.5980 c3        1 MOL     -0.117068
    140 C49        -5.7900   -0.9530   -2.6530 c3        1 MOL     -0.040934
    141 H60        -7.3960   -3.1600   -1.2330 h1        1 MOL      0.049539
    142 H61        -4.7460   -3.6970   -2.4370 hc        1 MOL      0.017166
    143 H62        -6.4610   -4.0580   -3.0100 hc        1 MOL      0.017166
    144 H63        -4.7690   -2.1740   -4.1640 hc        1 MOL      0.051202
    145 H64        -6.6220   -2.1850   -4.1830 hc        1 MOL      0.051202
    146 H65        -4.7360   -0.7620   -2.4140 h1        1 MOL      0.070318
    147 H66        -6.1270   -0.0810   -3.2170 h1        1 MOL      0.070318
    148 N13        -4.5330   -2.3900    0.2340 n         1 MOL     -0.015325
    149 C50        -3.7450   -2.5990    1.4670 c3        1 MOL     -0.261327
    150 C51        -4.4090   -2.0910    2.7450 c         1 MOL      0.513739
    151 O21        -4.2050   -2.7200    3.8070 o         1 MOL     -0.573688
    152 C52        -2.4190   -1.8670    1.2950 c3        1 MOL      0.041613
    153 C53        -1.5650   -2.3890    0.0490 c3        1 MOL     -0.219899
    154 C54        -0.2880   -1.7050   -0.0140 c         1 MOL      0.797314
    155 O22        -0.3720   -0.5090   -0.2480 o         1 MOL     -0.751599
    156 O23         0.8690   -2.2190   -0.0380 o         1 MOL     -0.751599
    157 H67        -4.3700   -1.5520   -0.3150 hn        1 MOL      0.111480
    158 H68        -3.4890   -3.6540    1.5700 h1        1 MOL      0.159074
    159 H69        -1.7570   -1.9140    2.1580 hc        1 MOL      0.066148
    160 H70        -2.5110   -0.7880    1.2290 hc        1 MOL      0.066148
    161 H71        -2.0480   -2.1210   -0.8850 hc        1 MOL      0.048245
    162 H72        -1.3420   -3.4640    0.0580 hc        1 MOL      0.048245
    163 N14        -5.2220   -1.0380    2.6500 n         1 MOL      0.050996
    164 C55        -6.1300   -0.5920    3.6360 c3        1 MOL     -0.313022
    165 H73        -6.6300    0.3100    3.2870 h1        1 MOL      0.098559
    166 H74        -6.8720   -1.3680    3.8250 h1        1 MOL      0.098559
    167 H75        -5.5890   -0.3750    4.5580 h1        1 MOL      0.098559
    168 H76        -5.1960   -0.4940    1.7940 hn        1 MOL      0.064611
    169 Ca1         2.0340   -0.1210   -0.9470 Ca        1 MOL      1.752780
    170 O24         0.8470   -1.5470   -3.0690 oh        1 MOL     -0.814121
    171 H77         0.0370   -1.4250   -3.5530 ho        1 MOL      0.406288
    172 H78         1.0970   -2.4530   -3.2390 ho        1 MOL      0.406288
    173 O25         0.7990    2.1590   -1.9530 oh        1 MOL     -0.814121
    174 H79         0.9850    2.3580   -2.8680 ho        1 MOL      0.406288
    175 H80         0.9930    2.9660   -1.4850 ho        1 MOL      0.406288
@<TRIPOS>BOND
     1    1    2 1   
     2    1    4 1   
     3    1    5 1   
     4    1    6 1   
     5    2    3 2   
     6    2    7 1   
     7    7    8 1   
     8    7   15 1   
     9    8    9 1   
    10    8   11 1   
    11    8   16 1   
    12    9   10 2   
    13    9   19 1   
    14   11   12 1   
    15   11   17 1   
    16   11   18 1   
    17   12   13 1   
    18   12   14 1   
    19   19   20 1   
    20   19   24 1   
    21   20   21 1   
    22   20   23 1   
    23   20   25 1   
    24   21   22 2   
    25   21   29 1   
    26   23   26 1   
    27   23   27 1   
    28   23   28 1   
    29   29   30 1   
    30   29   37 1   
    31   30   31 1   
    32   30   33 1   
    33   30   38 1   
    34   31   32 2   
    35   31   41 1   
    36   33   34 1   
    37   33   39 1   
    38   33   40 1   
    39   34   35 1   
    40   34   36 1   
    41   41   42 1   
    42   41   45 1   
    43   42   43 1   
    44   42   46 1   
    45   42   47 1   
    46   43   44 2   
    47   43   48 1   
    48   48   49 1   
    49   48   56 1   
    50   49   50 1   
    51   49   52 1   
    52   49   57 1   
    53   50   51 2   
    54   50   62 1   
    55   52   53 1   
    56   52   58 1   
    57   52   59 1   
    58   53   54 1   
    59   53   55 2   
    60   54   60 1   
    61   54   61 1   
    62   62   63 1   
    63   62   66 1   
    64   63   64 1   
    65   63   67 1   
    66   63   68 1   
    67   64   65 2   
    68   64   69 1   
    69   69   70 1   
    70   69   76 1   
    71   70   71 1   
    72   70   73 1   
    73   70   77 1   
    74   71   72 2   
    75   71   83 1   
    76   73   74 1   
    77   73   75 1   
    78   73   78 1   
    79   74   80 1   
    80   74   81 1   
    81   74   82 1   
    82   75   79 1   
    83   83   84 1   
    84   83   91 1   
    85   84   85 1   
    86   84   87 1   
    87   84   92 1   
    88   85   86 2   
    89   85  102 1   
    90   87   88 1   
    91   87   89 1   
    92   87   93 1   
    93   88   90 1   
    94   88   94 1   
    95   88   95 1   
    96   89   96 1   
    97   89   97 1   
    98   89   98 1   
    99   90   99 1   
   100   90  100 1   
   101   90  101 1   
   102  102  103 1   
   103  102  110 1   
   104  103  104 1   
   105  103  106 1   
   106  103  111 1   
   107  104  105 2   
   108  104  114 1   
   109  106  107 1   
   110  106  112 1   
   111  106  113 1   
   112  107  108 1   
   113  107  109 1   
   114  114  115 1   
   115  114  125 1   
   116  115  116 1   
   117  115  118 1   
   118  115  126 1   
   119  116  117 2   
   120  116  134 1   
   121  118  119 1   
   122  118  127 1   
   123  118  128 1   
   124  119  120 ar  
   125  119  121 ar  
   126  120  122 ar  
   127  120  129 1   
   128  121  123 ar  
   129  121  130 1   
   130  122  124 ar  
   131  122  131 1   
   132  123  124 ar  
   133  123  132 1   
   134  124  133 1   
   135  134  135 1   
   136  134  140 1   
   137  135  136 1   
   138  135  138 1   
   139  135  141 1   
   140  136  137 2   
   141  136  148 1   
   142  138  139 1   
   143  138  142 1   
   144  138  143 1   
   145  139  140 1   
   146  139  144 1   
   147  139  145 1   
   148  140  146 1   
   149  140  147 1   
   150  148  149 1   
   151  148  157 1   
   152  149  150 1   
   153  149  152 1   
   154  149  158 1   
   155  150  151 2   
   156  150  163 1   
   157  152  153 1   
   158  152  159 1   
   159  152  160 1   
   160  153  154 1   
   161  153  161 1   
   162  153  162 1   
   163  154  155 1   
   164  154  156 1   
   165  163  164 1   
   166  163  168 1   
   167  164  165 1   
   168  164  166 1   
   169  164  167 1   
   170  170  171 1   
   171  170  172 1   
   172  173  174 1   
   173  173  175 1   
@<TRIPOS>SUBSTRUCTURE
     1 MOL         1 TEMP              0 ****  ****    0 ROOT
