@<TRIPOS>MOLECULE
MOL
  179   176     1     0     0
SMALL
resp


@<TRIPOS>ATOM
      1 C1          2.8220    2.7180    4.1320 c3        1 MOL     -0.511828
      2 C2          1.8550    2.7110    2.9400 c         1 MOL      0.714478
      3 O1          2.2980    2.9320    1.8790 o         1 MOL     -0.595684
      4 H1          2.8830    1.7150    4.5550 hc        1 MOL      0.130675
      5 H2          3.8110    3.0300    3.7960 hc        1 MOL      0.130675
      6 H3          2.4590    3.4120    4.8910 hc        1 MOL      0.130675
      7 N1          0.5590    2.4780    3.1240 n         1 MOL     -0.548946
      8 C3         -0.4830    2.4260    2.1300 c3        1 MOL      0.388758
      9 C4         -0.9620    3.8420    1.7030 c         1 MOL      0.270311
     10 O2         -1.9670    4.2800    2.2180 o         1 MOL     -0.433347
     11 C5         -1.6890    1.5180    2.5340 c3        1 MOL     -0.295062
     12 C6         -2.7550    1.4300    1.4120 c         1 MOL      0.613013
     13 O3         -3.9240    1.2890    1.7750 o         1 MOL     -0.627837
     14 O4         -2.4780    1.6120    0.1850 o         1 MOL     -0.627837
     15 H4          0.3390    2.3730    4.1020 hn        1 MOL      0.272791
     16 H5         -0.0450    1.9370    1.2620 h1        1 MOL     -0.064737
     17 H6         -2.1500    2.1010    3.3350 hc        1 MOL      0.074971
     18 H7         -1.4260    0.5090    2.8320 hc        1 MOL      0.074971
     19 N2         -0.1950    4.4560    0.8030 n         1 MOL     -0.426731
     20 C7         -0.3990    5.8560    0.3200 c3        1 MOL      0.298123
     21 C8         -1.4620    6.0720   -0.7050 c         1 MOL      0.305163
     22 O5         -2.1500    7.0650   -0.6680 o         1 MOL     -0.516348
     23 C9          0.9780    6.4640   -0.0420 c3        1 MOL     -0.147967
     24 C10         1.9780    6.8990    1.1210 c3        1 MOL     -0.012845
     25 C11         3.1460    7.7960    0.6050 c3        1 MOL      0.065479
     26 C12         4.2140    8.2400    1.6370 c3        1 MOL     -0.091513
     27 N3          5.0950    7.1410    2.0400 n4        1 MOL     -0.264456
     28 H8          0.7370    4.0690    0.7850 hn        1 MOL      0.322726
     29 H9         -0.7270    6.4620    1.1700 h1        1 MOL      0.022754
     30 H10         0.7460    7.3730   -0.5780 hc        1 MOL      0.040983
     31 H11         1.3890    5.7870   -0.7940 hc        1 MOL      0.040983
     32 H12         2.3410    5.9590    1.5480 hc        1 MOL      0.015310
     33 H13         1.3970    7.4490    1.8630 hc        1 MOL      0.015310
     34 H14         2.6800    8.6850    0.1750 hc        1 MOL      0.034067
     35 H15         3.6730    7.3580   -0.2410 hc        1 MOL      0.034067
     36 H16         3.6690    8.6430    2.4940 hx        1 MOL      0.103759
     37 H17         4.8140    9.0150    1.1770 hx        1 MOL      0.103759
     38 H18         5.7880    7.5410    2.6690 hn        1 MOL      0.314076
     39 H19         4.6120    6.4700    2.6160 hn        1 MOL      0.314076
     40 H20         5.5890    6.6880    1.2800 hn        1 MOL      0.314076
     41 N4         -1.6040    5.1180   -1.5840 n         1 MOL     -0.162205
     42 C13        -2.7450    5.0260   -2.5690 c3        1 MOL     -0.122196
     43 C14        -4.1400    4.7330   -1.9400 c         1 MOL      0.431916
     44 O6         -5.1810    4.8750   -2.5460 o         1 MOL     -0.505564
     45 C15        -2.3750    3.9600   -3.6210 c3        1 MOL     -0.152689
     46 C16        -2.0670    2.5930   -3.0810 c         1 MOL      0.753598
     47 O7         -2.9360    1.7720   -2.7400 o         1 MOL     -0.756545
     48 O8         -0.8640    2.3660   -2.7350 o         1 MOL     -0.756545
     49 H21        -0.9630    4.3440   -1.6160 hn        1 MOL      0.181453
     50 H22        -2.7720    5.9610   -3.1200 h1        1 MOL      0.131833
     51 H23        -1.5540    4.2730   -4.2680 hc        1 MOL      0.052296
     52 H24        -3.2200    3.8800   -4.3090 hc        1 MOL      0.052296
     53 N5         -4.1380    4.1970   -0.6900 n         1 MOL      0.037623
     54 C17        -5.3770    3.9180    0.0430 c3        1 MOL     -0.369266
     55 C18        -6.2410    2.7390   -0.3990 c         1 MOL      0.597441
     56 O9         -7.4560    2.7920   -0.3240 o         1 MOL     -0.597857
     57 H25        -3.2340    3.9400   -0.3100 hn        1 MOL      0.073153
     58 H26        -5.9940    4.8140    0.0950 h1        1 MOL      0.147543
     59 H27        -5.0880    3.5920    1.0440 h1        1 MOL      0.147543
     60 N6         -5.7090    1.6500   -0.9090 n         1 MOL     -0.091482
     61 C19        -6.5300    0.5050   -1.3310 c3        1 MOL     -0.229372
     62 C20        -6.6540   -0.5610   -0.2180 c         1 MOL      0.474062
     63 O10        -7.2470   -1.6020   -0.4800 o         1 MOL     -0.558617
     64 C21        -5.7820   -0.1850   -2.5540 c3        1 MOL     -0.078935
     65 C22        -4.6030   -1.1240   -2.2420 c         1 MOL      0.451780
     66 N7         -4.3540   -1.9760   -3.1520 n         1 MOL     -0.659710
     67 O11        -3.9060   -1.0360   -1.2410 o         1 MOL     -0.386345
     68 H28        -4.6990    1.6260   -1.0240 hn        1 MOL      0.083585
     69 H29        -7.5550    0.7370   -1.6120 h1        1 MOL      0.172131
     70 H30        -5.4890    0.6320   -3.2300 hc        1 MOL      0.065978
     71 H31        -6.4560   -0.7480   -3.2050 hc        1 MOL      0.065978
     72 H32        -4.9730   -1.9830   -3.9500 hn        1 MOL      0.340399
     73 H33        -3.6500   -2.6630   -2.9100 hn        1 MOL      0.340399
     74 N8         -6.1150   -0.2820    0.9420 n         1 MOL     -0.234935
     75 C23        -6.1330   -1.0890    2.1740 c3        1 MOL     -0.218459
     76 C24        -4.9380   -1.9420    2.3830 c         1 MOL      0.551398
     77 O12        -5.0120   -2.7450    3.3160 o         1 MOL     -0.559680
     78 H34        -5.5750    0.5680    0.9540 hn        1 MOL      0.228130
     79 H35        -7.0530   -1.6720    2.1600 h1        1 MOL      0.132085
     80 H36        -6.1950   -0.4130    3.0210 h1        1 MOL      0.132085
     81 N9         -3.8770   -1.9240    1.5010 n         1 MOL     -0.440429
     82 C25        -2.9040   -3.0470    1.4390 c3        1 MOL      0.619461
     83 C26        -1.4840   -2.4580    1.2610 c         1 MOL     -0.001636
     84 O13        -1.2830   -1.4000    0.7200 o         1 MOL     -0.503110
     85 C27        -3.1860   -4.0710    0.2880 c3        1 MOL     -0.160544
     86 C28        -4.3930   -4.9710    0.4570 ca        1 MOL     -0.061356
     87 C29        -4.2100   -6.2730    1.0040 ca        1 MOL     -0.063739
     88 C30        -5.6710   -4.5080    0.1030 ca        1 MOL     -0.063739
     89 C31        -5.3090   -7.1310    1.1340 ca        1 MOL     -0.302435
     90 C32        -6.7750   -5.3560    0.1790 ca        1 MOL     -0.302435
     91 C33        -6.6340   -6.6470    0.6820 ca        1 MOL      0.362288
     92 O14        -7.6820   -7.5500    0.7340 oh        1 MOL     -0.537666
     93 H37        -3.8530   -1.3270    0.6920 hn        1 MOL      0.330162
     94 H38        -3.0370   -3.5360    2.4000 h1        1 MOL     -0.073091
     95 H39        -2.3000   -4.6990    0.3590 hc        1 MOL      0.034448
     96 H40        -3.4040   -3.5800   -0.6590 hc        1 MOL      0.034448
     97 H41        -3.2390   -6.7420    1.0590 ha        1 MOL      0.103781
     98 H42        -5.8300   -3.5290   -0.3360 ha        1 MOL      0.103781
     99 H43        -5.1470   -8.1160    1.5460 ha        1 MOL      0.157923
    100 H44        -7.7800   -4.9730    0.0360 ha        1 MOL      0.157923
    101 H45        -8.5380   -7.1180    0.6500 ho        1 MOL      0.386513
    102 N10        -0.5310   -3.2740    1.5840 n         1 MOL     -0.272184
    103 C34         0.8840   -2.8690    1.5830 c3        1 MOL     -0.007952
    104 C35         1.6480   -3.8860    0.7810 c         1 MOL      0.490195
    105 O15         1.4150   -5.0780    0.9460 o         1 MOL     -0.551561
    106 C36         1.5040   -2.6040    2.9890 c3        1 MOL      0.007058
    107 C37         0.7460   -1.5000    3.7290 c3        1 MOL      0.106670
    108 C38         3.0160   -2.2930    2.9760 c3        1 MOL     -0.282344
    109 C39         1.1240   -1.4610    5.2110 c3        1 MOL     -0.157338
    110 H46        -0.6680   -4.1360    2.0850 hn        1 MOL      0.264600
    111 H47         0.9430   -1.9020    1.0860 h1        1 MOL      0.125269
    112 H48         1.3970   -3.5420    3.5460 hc        1 MOL      0.048120
    113 H49        -0.3410   -1.6050    3.7450 hc        1 MOL      0.029994
    114 H50         0.8720   -0.4940    3.3350 hc        1 MOL      0.029994
    115 H51         3.3710   -2.0510    3.9820 hc        1 MOL      0.051252
    116 H52         3.5960   -3.0810    2.4880 hc        1 MOL      0.051252
    117 H53         3.2280   -1.3970    2.3830 hc        1 MOL      0.051252
    118 H54         0.4050   -0.7860    5.6760 hc        1 MOL      0.033371
    119 H55         0.8970   -2.4620    5.5690 hc        1 MOL      0.033371
    120 H56         2.0870   -1.0060    5.4260 hc        1 MOL      0.033371
    121 N11         2.5860   -3.4080   -0.0540 n         1 MOL     -0.168734
    122 C40         3.5340   -4.1610   -0.8520 c3        1 MOL      0.106243
    123 C41         4.9880   -3.6920   -0.5130 c         1 MOL      0.236305
    124 O16         5.2810   -2.5880   -0.0470 o         1 MOL     -0.260944
    125 C42         3.3890   -3.9660   -2.3910 c3        1 MOL      0.255981
    126 O17         2.0400   -4.0320   -2.7590 oh        1 MOL     -0.647976
    127 H57         2.6590   -2.3900   -0.0570 hn        1 MOL      0.219982
    128 H58         3.5570   -5.2310   -0.6230 h1        1 MOL      0.070031
    129 H59         3.9560   -4.7250   -2.9230 h1        1 MOL     -0.026958
    130 H60         3.7850   -3.0560   -2.8250 h1        1 MOL     -0.026958
    131 H61         1.8970   -3.6700   -3.6330 ho        1 MOL      0.412895
    132 N12         6.0430   -4.4950   -0.6970 n         1 MOL     -0.426672
    133 C43         7.4770   -4.2250   -0.3910 c3        1 MOL      0.126377
    134 C44         8.0380   -2.8330   -0.8550 c         1 MOL      0.538834
    135 O18         8.6830   -2.2570   -0.0660 o         1 MOL     -0.513602
    136 C45         8.2800   -5.3770   -1.0640 c3        1 MOL     -0.420967
    137 H62         5.8290   -5.4010   -1.0930 hn        1 MOL      0.284525
    138 H63         7.6610   -4.2230    0.6810 h1        1 MOL      0.102472
    139 H64         7.9120   -5.5140   -2.0800 hc        1 MOL      0.123893
    140 H65         9.3730   -5.4070   -1.0510 hc        1 MOL      0.123893
    141 H66         7.9830   -6.3300   -0.6160 hc        1 MOL      0.123893
    142 N13         7.7980   -2.3100   -2.0670 n         1 MOL     -0.398414
    143 C46         8.2500   -0.9340   -2.3890 c3        1 MOL      0.065242
    144 C47         7.5410    0.2220   -1.6390 c         1 MOL      0.377317
    145 O19         8.1620    1.2380   -1.3170 o         1 MOL     -0.470618
    146 C48         8.0340   -0.8270   -3.8520 c3        1 MOL     -0.142774
    147 H67         7.1780   -2.7870   -2.7000 hn        1 MOL      0.229032
    148 H68         9.3230   -0.9190   -2.2200 h1        1 MOL      0.102349
    149 H69         6.9830   -0.9320   -4.1310 hc        1 MOL      0.046483
    150 H70         8.3800    0.1190   -4.2710 hc        1 MOL      0.046483
    151 H71         8.6200   -1.6070   -4.3410 hc        1 MOL      0.046483
    152 N14         6.1980    0.0230   -1.4540 n         1 MOL     -0.184889
    153 C49         5.4330    0.7890   -0.4970 c3        1 MOL     -0.436637
    154 C50         6.0710    0.7130    0.9330 c         1 MOL      0.585652
    155 O20         6.0080    1.7690    1.6630 o         1 MOL     -0.601724
    156 C51         3.9930    0.2550   -0.3980 c3        1 MOL      0.409568
    157 C52         3.1720   -0.0190   -1.6310 c3        1 MOL     -0.297689
    158 C53         1.6980   -0.1630   -1.3430 c         1 MOL      0.733079
    159 O21         1.0960    0.7690   -0.7060 o         1 MOL     -0.722275
    160 O22         0.9960   -1.1600   -1.6720 o         1 MOL     -0.722275
    161 H72         5.7630   -0.8590   -1.7150 hn        1 MOL      0.203475
    162 H73         5.3170    1.7920   -0.9060 h1        1 MOL      0.183705
    163 H74         3.4940    1.0230    0.1920 hc        1 MOL     -0.045447
    164 H75         3.9960   -0.6280    0.2410 hc        1 MOL     -0.045447
    165 H76         3.5670   -0.9520   -2.0530 hc        1 MOL      0.037817
    166 H77         3.3870    0.8170   -2.2910 hc        1 MOL      0.037817
    167 N15         6.6390   -0.4290    1.2910 n         1 MOL     -0.060839
    168 C54         7.3040   -0.5460    2.5510 c3        1 MOL     -0.399225
    169 H78         7.8650   -1.4800    2.5800 h1        1 MOL      0.141181
    170 H79         7.9890    0.2920    2.6790 h1        1 MOL      0.141181
    171 H80         6.5670   -0.5400    3.3540 h1        1 MOL      0.141181
    172 H81         6.5360   -1.2610    0.7340 hn        1 MOL      0.087108
    173 Ca1        -1.3360    0.1020   -1.4600 Ca        1 MOL      1.699702
    174 O23        -1.0620   -2.6320   -1.8360 oh        1 MOL     -0.838313
    175 H82        -0.1470   -2.3640   -1.8140 ho        1 MOL      0.401844
    176 H83        -1.0420   -3.5440   -2.1430 ho        1 MOL      0.401844
    177 O24        -1.4690   -0.7570   -4.1140 oh        1 MOL     -0.838313
    178 H84        -1.2750   -1.6260   -4.4730 ho        1 MOL      0.401844
    179 H85        -2.1150   -0.3890   -4.7180 ho        1 MOL      0.401844
@<TRIPOS>BOND
     1    1    2 1   
     2    1    4 1   
     3    1    5 1   
     4    1    6 1   
     5    2    3 2   
     6    2    7 1   
     7    7    8 1   
     8    7   15 1   
     9    8    9 1   
    10    8   11 1   
    11    8   16 1   
    12    9   10 2   
    13    9   19 1   
    14   11   12 1   
    15   11   17 1   
    16   11   18 1   
    17   12   13 1   
    18   12   14 1   
    19   19   20 1   
    20   19   28 1   
    21   20   21 1   
    22   20   23 1   
    23   20   29 1   
    24   21   22 2   
    25   21   41 1   
    26   23   24 1   
    27   23   30 1   
    28   23   31 1   
    29   24   25 1   
    30   24   32 1   
    31   24   33 1   
    32   25   26 1   
    33   25   34 1   
    34   25   35 1   
    35   26   27 1   
    36   26   36 1   
    37   26   37 1   
    38   27   38 1   
    39   27   39 1   
    40   27   40 1   
    41   41   42 1   
    42   41   49 1   
    43   42   43 1   
    44   42   45 1   
    45   42   50 1   
    46   43   44 2   
    47   43   53 1   
    48   45   46 1   
    49   45   51 1   
    50   45   52 1   
    51   46   47 1   
    52   46   48 1   
    53   53   54 1   
    54   53   57 1   
    55   54   55 1   
    56   54   58 1   
    57   54   59 1   
    58   55   56 2   
    59   55   60 1   
    60   60   61 1   
    61   60   68 1   
    62   61   62 1   
    63   61   64 1   
    64   61   69 1   
    65   62   63 2   
    66   62   74 1   
    67   64   65 1   
    68   64   70 1   
    69   64   71 1   
    70   65   66 1   
    71   65   67 2   
    72   66   72 1   
    73   66   73 1   
    74   74   75 1   
    75   74   78 1   
    76   75   76 1   
    77   75   79 1   
    78   75   80 1   
    79   76   77 2   
    80   76   81 1   
    81   81   82 1   
    82   81   93 1   
    83   82   83 1   
    84   82   85 1   
    85   82   94 1   
    86   83   84 2   
    87   83  102 1   
    88   85   86 1   
    89   85   95 1   
    90   85   96 1   
    91   86   87 ar  
    92   86   88 ar  
    93   87   89 ar  
    94   87   97 1   
    95   88   90 ar  
    96   88   98 1   
    97   89   91 ar  
    98   89   99 1   
    99   90   91 ar  
   100   90  100 1   
   101   91   92 1   
   102   92  101 1   
   103  102  103 1   
   104  102  110 1   
   105  103  104 1   
   106  103  106 1   
   107  103  111 1   
   108  104  105 2   
   109  104  121 1   
   110  106  107 1   
   111  106  108 1   
   112  106  112 1   
   113  107  109 1   
   114  107  113 1   
   115  107  114 1   
   116  108  115 1   
   117  108  116 1   
   118  108  117 1   
   119  109  118 1   
   120  109  119 1   
   121  109  120 1   
   122  121  122 1   
   123  121  127 1   
   124  122  123 1   
   125  122  125 1   
   126  122  128 1   
   127  123  124 2   
   128  123  132 1   
   129  125  126 1   
   130  125  129 1   
   131  125  130 1   
   132  126  131 1   
   133  132  133 1   
   134  132  137 1   
   135  133  134 1   
   136  133  136 1   
   137  133  138 1   
   138  134  135 2   
   139  134  142 1   
   140  136  139 1   
   141  136  140 1   
   142  136  141 1   
   143  142  143 1   
   144  142  147 1   
   145  143  144 1   
   146  143  146 1   
   147  143  148 1   
   148  144  145 2   
   149  144  152 1   
   150  146  149 1   
   151  146  150 1   
   152  146  151 1   
   153  152  153 1   
   154  152  161 1   
   155  153  154 1   
   156  153  156 1   
   157  153  162 1   
   158  154  155 2   
   159  154  167 1   
   160  156  157 1   
   161  156  163 1   
   162  156  164 1   
   163  157  158 1   
   164  157  165 1   
   165  157  166 1   
   166  158  159 1   
   167  158  160 1   
   168  167  168 1   
   169  167  172 1   
   170  168  169 1   
   171  168  170 1   
   172  168  171 1   
   173  174  175 1   
   174  174  176 1   
   175  177  178 1   
   176  177  179 1   
@<TRIPOS>SUBSTRUCTURE
     1 MOL         1 TEMP              0 ****  ****    0 ROOT
