@<TRIPOS>MOLECULE
MOL
  179   176     1     0     0
SMALL
resp


@<TRIPOS>ATOM
      1 C1          1.3610    2.9630    6.0070 c3        1 MOL     -0.343656
      2 C2          0.9730    2.8880    4.5250 c         1 MOL      0.741470
      3 O1          1.8240    3.1170    3.6570 o         1 MOL     -0.609331
      4 H1          0.6440    2.3960    6.5990 hc        1 MOL      0.088915
      5 H2          2.3580    2.5420    6.1440 hc        1 MOL      0.088915
      6 H3          1.3570    4.0040    6.3320 hc        1 MOL      0.088915
      7 N1         -0.2550    2.4320    4.2360 n         1 MOL     -0.670988
      8 C3         -0.9380    2.3020    2.9050 c3        1 MOL      0.105270
      9 C4         -1.1330    3.7130    2.2850 c         1 MOL      0.670206
     10 O2         -1.8790    4.5530    2.8080 o         1 MOL     -0.572147
     11 C5         -2.1780    1.4250    2.9860 c3        1 MOL     -0.101741
     12 C6         -2.8450    1.1960    1.6260 c         1 MOL      0.763503
     13 O3         -2.4020    1.8020    0.6350 o         1 MOL     -0.732467
     14 O4         -3.9080    0.5310    1.5730 o         1 MOL     -0.732467
     15 H4         -0.7870    2.1570    5.0470 hn        1 MOL      0.336748
     16 H5         -0.1920    1.7710    2.3140 h1        1 MOL     -0.002455
     17 H6         -2.8420    1.8350    3.7570 hc        1 MOL      0.031046
     18 H7         -1.8320    0.4480    3.3160 hc        1 MOL      0.031046
     19 N2         -0.3670    3.9270    1.2000 n         1 MOL     -0.311328
     20 C7         -0.2710    5.1640    0.4680 c3        1 MOL     -0.192790
     21 C8         -1.6140    5.5880   -0.0510 c         1 MOL      0.767073
     22 O5         -1.7660    6.7730   -0.2370 o         1 MOL     -0.632003
     23 C9          0.7760    5.1050   -0.6230 c3        1 MOL      0.020115
     24 C10         0.9720    6.4360   -1.4400 c3        1 MOL     -0.175637
     25 C11         2.1020    6.1720   -2.5080 c3        1 MOL     -0.028726
     26 C12         3.5500    6.4100   -2.0560 c3        1 MOL      0.034809
     27 N3          3.8720    7.8080   -2.4030 n4        1 MOL     -0.477235
     28 H8          0.0980    3.1260    0.8160 hn        1 MOL      0.221799
     29 H9         -0.1020    5.9190    1.2310 h1        1 MOL      0.095031
     30 H10         0.4790    4.2960   -1.2790 hc        1 MOL      0.091730
     31 H11         1.7410    4.8080   -0.2030 hc        1 MOL      0.091730
     32 H12         1.2220    7.2570   -0.7690 hc        1 MOL      0.078245
     33 H13         0.0910    6.6360   -2.0420 hc        1 MOL      0.078245
     34 H14         1.9500    6.7500   -3.4240 hc        1 MOL      0.031295
     35 H15         2.0570    5.1210   -2.7680 hc        1 MOL      0.031295
     36 H16         4.2240    5.6670   -2.4800 hx        1 MOL      0.098008
     37 H17         3.5910    6.1430   -1.0000 hx        1 MOL      0.098008
     38 H18         3.5400    8.0150   -3.3320 hn        1 MOL      0.359406
     39 H19         3.4900    8.4460   -1.7250 hn        1 MOL      0.359406
     40 H20         4.8540    8.0200   -2.3730 hn        1 MOL      0.359406
     41 N4         -2.5290    4.6720   -0.2830 n         1 MOL     -0.319075
     42 C13        -3.6440    4.8600   -1.1620 c3        1 MOL     -0.018664
     43 C14        -5.0190    4.3680   -0.6590 c         1 MOL      0.514438
     44 O6         -5.9430    4.5360   -1.3550 o         1 MOL     -0.505834
     45 C15        -3.2150    4.2280   -2.5490 c3        1 MOL     -0.114122
     46 C16        -2.6840    2.8630   -2.4550 c         1 MOL      0.705222
     47 O7         -1.4930    2.7110   -2.1770 o         1 MOL     -0.722300
     48 O8         -3.5020    1.9440   -2.6450 o         1 MOL     -0.722300
     49 H21        -2.2500    3.7140   -0.1120 hn        1 MOL     -0.113483
     50 H22        -3.7950    5.9190   -1.4200 h1        1 MOL      0.095634
     51 H23        -2.4130    4.8850   -2.8870 hc        1 MOL      0.042216
     52 H24        -4.0230    4.2940   -3.2680 hc        1 MOL      0.042216
     53 N5         -5.0210    3.6040    0.4390 n         1 MOL     -0.311069
     54 C17        -6.2130    2.9710    1.0330 c3        1 MOL     -0.141615
     55 C18        -6.9030    1.8700    0.2500 c         1 MOL      0.443927
     56 O9         -8.1350    1.7620    0.2650 o         1 MOL     -0.548269
     57 H25        -4.1210    3.4820    0.8990 hn        1 MOL      0.269573
     58 H26        -6.8880    3.8090    1.1810 h1        1 MOL      0.109095
     59 H27        -6.0150    2.6010    2.0470 h1        1 MOL      0.109095
     60 N6         -6.1320    0.9410   -0.3440 n         1 MOL     -0.111967
     61 C19        -6.5950   -0.2890   -0.9850 c3        1 MOL      0.011516
     62 C20        -6.5650   -1.5660   -0.0480 c         1 MOL      0.222718
     63 O10        -7.0940   -2.6480   -0.3900 o         1 MOL     -0.429391
     64 C21        -5.8920   -0.4320   -2.3780 c3        1 MOL     -0.284168
     65 C22        -4.4660   -0.9390   -2.4860 c         1 MOL      0.857713
     66 N7         -4.0600   -1.3240   -3.6550 n         1 MOL     -0.803097
     67 O11        -3.6930   -0.9670   -1.5400 o         1 MOL     -0.655176
     68 H28        -5.1390    1.0960   -0.3020 hn        1 MOL      0.242592
     69 H29        -7.6400   -0.2360   -1.2740 h1        1 MOL      0.122717
     70 H30        -5.8590    0.5520   -2.8360 hc        1 MOL      0.083544
     71 H31        -6.4310   -1.1810   -2.9510 hc        1 MOL      0.083544
     72 H32        -4.6640   -1.1990   -4.4570 hn        1 MOL      0.362546
     73 H33        -3.0650   -1.4790   -3.7000 hn        1 MOL      0.362546
     74 N8         -6.0350   -1.4670    1.1630 n         1 MOL     -0.135029
     75 C23        -5.8330   -2.4890    2.1930 c3        1 MOL     -0.103911
     76 C24        -4.5150   -3.3020    2.0760 c         1 MOL      0.620568
     77 O12        -4.3880   -4.3500    2.7370 o         1 MOL     -0.575100
     78 H34        -5.7480   -0.5100    1.3090 hn        1 MOL      0.201113
     79 H35        -6.6520   -3.1920    2.3650 h1        1 MOL      0.087242
     80 H36        -5.7360   -1.9510    3.1380 h1        1 MOL      0.087242
     81 N9         -3.5240   -2.8530    1.2570 n         1 MOL     -0.481603
     82 C25        -2.2460   -3.5100    1.0390 c3        1 MOL      0.387740
     83 C26        -1.0620   -2.5450    1.0840 c         1 MOL      0.451100
     84 O13        -1.2030   -1.4570    0.7080 o         1 MOL     -0.541133
     85 C27        -2.3350   -4.2320   -0.3490 c3        1 MOL     -0.234673
     86 C28        -3.6020   -5.0720   -0.4690 ca        1 MOL      0.169987
     87 C29        -4.6680   -4.6160   -1.2770 ca        1 MOL     -0.300677
     88 C30        -3.7040   -6.3370    0.1740 ca        1 MOL     -0.300677
     89 C31        -5.8130   -5.4430   -1.4640 ca        1 MOL     -0.112349
     90 C32        -4.8910   -7.1470   -0.0180 ca        1 MOL     -0.112349
     91 C33        -5.9160   -6.7310   -0.9300 ca        1 MOL      0.191714
     92 O14        -7.0030   -7.5470   -1.3030 oh        1 MOL     -0.448336
     93 H37        -3.7930   -2.0020    0.7740 hn        1 MOL      0.199312
     94 H38        -2.0370   -4.1160    1.9190 h1        1 MOL     -0.014136
     95 H39        -1.4740   -4.9030   -0.3930 hc        1 MOL      0.062379
     96 H40        -2.3230   -3.4970   -1.1540 hc        1 MOL      0.062379
     97 H41        -4.6760   -3.6320   -1.7160 ha        1 MOL      0.161162
     98 H42        -2.8810   -6.6840    0.7700 ha        1 MOL      0.161162
     99 H43        -6.6550   -5.1000   -2.0360 ha        1 MOL      0.116680
    100 H44        -4.9700   -8.1290    0.4150 ha        1 MOL      0.116680
    101 H45        -6.8070   -8.3710   -0.8510 ho        1 MOL      0.337475
    102 N10         0.0650   -3.0040    1.5610 n         1 MOL     -0.421825
    103 C34         1.3570   -2.4070    1.2940 c3        1 MOL     -0.236699
    104 C35         2.2310   -3.3700    0.5040 c         1 MOL      0.510432
    105 O15         2.3020   -4.5260    0.8900 o         1 MOL     -0.534157
    106 C36         2.0910   -1.7730    2.4740 c3        1 MOL      0.143698
    107 C37         2.5400   -2.7610    3.5720 c3        1 MOL     -0.128960
    108 C38         1.1020   -0.6810    3.0300 c3        1 MOL     -0.385978
    109 C39         3.1800   -2.2050    4.8560 c3        1 MOL     -0.126226
    110 H46         0.0430   -3.9580    1.9010 hn        1 MOL      0.298773
    111 H47         1.1340   -1.5800    0.6090 h1        1 MOL      0.204799
    112 H48         2.9740   -1.2700    2.0850 hc        1 MOL     -0.042154
    113 H49         3.2990   -3.3890    3.1070 hc        1 MOL      0.078962
    114 H50         1.7670   -3.4170    3.9740 hc        1 MOL      0.078962
    115 H51         1.6590   -0.1330    3.7960 hc        1 MOL      0.129084
    116 H52         0.6960   -0.1060    2.2030 hc        1 MOL      0.129084
    117 H53         0.2490   -1.1510    3.5140 hc        1 MOL      0.129084
    118 H54         3.6990   -3.0140    5.3720 hc        1 MOL      0.034041
    119 H55         3.9150   -1.4830    4.4980 hc        1 MOL      0.034041
    120 H56         2.4430   -1.6810    5.4670 hc        1 MOL      0.034041
    121 N11         2.8860   -2.9480   -0.6020 n         1 MOL     -0.308978
    122 C40         3.8130   -3.6860   -1.3630 c3        1 MOL      0.046086
    123 C41         5.2130   -3.4790   -0.6940 c         1 MOL      0.486956
    124 O16         5.3940   -2.7590    0.2710 o         1 MOL     -0.386638
    125 C42         3.8100   -3.0500   -2.7620 c3        1 MOL     -0.217692
    126 O17         4.3860   -1.7350   -2.7640 oh        1 MOL     -0.457145
    127 H57         2.7100   -2.0080   -0.9130 hn        1 MOL      0.190579
    128 H58         3.6660   -4.7700   -1.3720 h1        1 MOL      0.086002
    129 H59         2.8320   -3.1220   -3.2390 h1        1 MOL      0.118247
    130 H60         4.4420   -3.7230   -3.3530 h1        1 MOL      0.118247
    131 H61         4.0180   -1.1630   -3.4400 ho        1 MOL      0.396867
    132 N12         6.2720   -4.0910   -1.2850 n         1 MOL     -0.543635
    133 C43         7.6810   -3.8030   -0.8460 c3        1 MOL      0.257928
    134 C44         8.1440   -2.3000   -0.9910 c         1 MOL      0.438923
    135 O18         8.8230   -1.8900   -0.0390 o         1 MOL     -0.499574
    136 C45         8.6240   -4.7960   -1.6360 c3        1 MOL     -0.247460
    137 H62         6.0800   -4.6910   -2.0690 hn        1 MOL      0.303547
    138 H63         7.8480   -4.0220    0.2050 h1        1 MOL      0.041685
    139 H64         9.6770   -4.7420   -1.3620 hc        1 MOL      0.069135
    140 H65         8.2430   -5.7990   -1.4470 hc        1 MOL      0.069135
    141 H66         8.5360   -4.5030   -2.6880 hc        1 MOL      0.069135
    142 N13         7.7530   -1.6290   -2.0650 n         1 MOL     -0.415843
    143 C46         8.0260   -0.2070   -2.0540 c3        1 MOL      0.148187
    144 C47         7.3550    0.6510   -0.9650 c         1 MOL      0.304110
    145 O19         8.0860    1.4920   -0.4790 o         1 MOL     -0.476613
    146 C48         7.5540    0.2260   -3.4450 c3        1 MOL     -0.256473
    147 H67         7.0850   -1.9700   -2.7340 hn        1 MOL      0.266266
    148 H68         9.0860   -0.0150   -1.9480 h1        1 MOL      0.098504
    149 H69         7.9080    1.2420   -3.6280 hc        1 MOL      0.063859
    150 H70         8.0580   -0.3330   -4.2440 hc        1 MOL      0.063859
    151 H71         6.4790    0.1090   -3.5500 hc        1 MOL      0.063859
    152 N14         6.0750    0.4930   -0.5910 n         1 MOL     -0.148776
    153 C49         5.3430    1.2150    0.4500 c3        1 MOL     -0.042930
    154 C50         5.9130    0.9890    1.8390 c         1 MOL      0.318297
    155 O20         6.1150    1.8890    2.7060 o         1 MOL     -0.518266
    156 C51         3.9040    0.8790    0.3980 c3        1 MOL      0.089963
    157 C52         3.1830    1.3970   -0.8070 c3        1 MOL      0.023001
    158 C53         1.7510    0.6890   -0.7950 c         1 MOL      0.549627
    159 O21         0.7700    1.3890   -0.3340 o         1 MOL     -0.676572
    160 O22         1.5810   -0.3660   -1.4500 o         1 MOL     -0.676572
    161 H72         5.6060   -0.1880   -1.1740 hn        1 MOL      0.188461
    162 H73         5.3090    2.2940    0.2530 h1        1 MOL      0.062564
    163 H74         3.4340    1.3560    1.2520 hc        1 MOL      0.060623
    164 H75         3.7160   -0.1760    0.5700 hc        1 MOL      0.060623
    165 H76         3.7810    1.2710   -1.7070 hc        1 MOL     -0.045394
    166 H77         3.1630    2.4670   -0.6250 hc        1 MOL     -0.045394
    167 N15         6.2720   -0.2890    2.1570 n         1 MOL      0.069323
    168 C54         6.9930   -0.7670    3.3290 c3        1 MOL     -0.276304
    169 H78         6.2930   -1.2470    4.0140 h1        1 MOL      0.107954
    170 H79         7.7510   -1.4860    3.0210 h1        1 MOL      0.107954
    171 H80         7.4720    0.0740    3.8300 h1        1 MOL      0.107954
    172 H81         5.9960   -0.9480    1.4380 hn        1 MOL      0.050229
    173 Ca1        -1.3440    0.2950   -1.3270 Ca        1 MOL      1.750206
    174 O23        -0.4030   -1.9530   -2.2170 oh        1 MOL     -0.856161
    175 H82        -0.2830   -2.8900   -2.3200 ho        1 MOL      0.415684
    176 H83         0.4680   -1.5800   -2.3460 ho        1 MOL      0.415684
    177 O24        -1.1680    0.3690   -3.9830 oh        1 MOL     -0.856161
    178 H84        -1.4330    1.2580   -4.2190 ho        1 MOL      0.415684
    179 H85        -0.8500   -0.0140   -4.8040 ho        1 MOL      0.415684
@<TRIPOS>BOND
     1    1    2 1   
     2    1    4 1   
     3    1    5 1   
     4    1    6 1   
     5    2    3 2   
     6    2    7 1   
     7    7    8 1   
     8    7   15 1   
     9    8    9 1   
    10    8   11 1   
    11    8   16 1   
    12    9   10 2   
    13    9   19 1   
    14   11   12 1   
    15   11   17 1   
    16   11   18 1   
    17   12   13 1   
    18   12   14 1   
    19   19   20 1   
    20   19   28 1   
    21   20   21 1   
    22   20   23 1   
    23   20   29 1   
    24   21   22 2   
    25   21   41 1   
    26   23   24 1   
    27   23   30 1   
    28   23   31 1   
    29   24   25 1   
    30   24   32 1   
    31   24   33 1   
    32   25   26 1   
    33   25   34 1   
    34   25   35 1   
    35   26   27 1   
    36   26   36 1   
    37   26   37 1   
    38   27   38 1   
    39   27   39 1   
    40   27   40 1   
    41   41   42 1   
    42   41   49 1   
    43   42   43 1   
    44   42   45 1   
    45   42   50 1   
    46   43   44 2   
    47   43   53 1   
    48   45   46 1   
    49   45   51 1   
    50   45   52 1   
    51   46   47 1   
    52   46   48 1   
    53   53   54 1   
    54   53   57 1   
    55   54   55 1   
    56   54   58 1   
    57   54   59 1   
    58   55   56 2   
    59   55   60 1   
    60   60   61 1   
    61   60   68 1   
    62   61   62 1   
    63   61   64 1   
    64   61   69 1   
    65   62   63 2   
    66   62   74 1   
    67   64   65 1   
    68   64   70 1   
    69   64   71 1   
    70   65   66 1   
    71   65   67 2   
    72   66   72 1   
    73   66   73 1   
    74   74   75 1   
    75   74   78 1   
    76   75   76 1   
    77   75   79 1   
    78   75   80 1   
    79   76   77 2   
    80   76   81 1   
    81   81   82 1   
    82   81   93 1   
    83   82   83 1   
    84   82   85 1   
    85   82   94 1   
    86   83   84 2   
    87   83  102 1   
    88   85   86 1   
    89   85   95 1   
    90   85   96 1   
    91   86   87 ar  
    92   86   88 ar  
    93   87   89 ar  
    94   87   97 1   
    95   88   90 ar  
    96   88   98 1   
    97   89   91 ar  
    98   89   99 1   
    99   90   91 ar  
   100   90  100 1   
   101   91   92 1   
   102   92  101 1   
   103  102  103 1   
   104  102  110 1   
   105  103  104 1   
   106  103  106 1   
   107  103  111 1   
   108  104  105 2   
   109  104  121 1   
   110  106  107 1   
   111  106  108 1   
   112  106  112 1   
   113  107  109 1   
   114  107  113 1   
   115  107  114 1   
   116  108  115 1   
   117  108  116 1   
   118  108  117 1   
   119  109  118 1   
   120  109  119 1   
   121  109  120 1   
   122  121  122 1   
   123  121  127 1   
   124  122  123 1   
   125  122  125 1   
   126  122  128 1   
   127  123  124 2   
   128  123  132 1   
   129  125  126 1   
   130  125  129 1   
   131  125  130 1   
   132  126  131 1   
   133  132  133 1   
   134  132  137 1   
   135  133  134 1   
   136  133  136 1   
   137  133  138 1   
   138  134  135 2   
   139  134  142 1   
   140  136  139 1   
   141  136  140 1   
   142  136  141 1   
   143  142  143 1   
   144  142  147 1   
   145  143  144 1   
   146  143  146 1   
   147  143  148 1   
   148  144  145 2   
   149  144  152 1   
   150  146  149 1   
   151  146  150 1   
   152  146  151 1   
   153  152  153 1   
   154  152  161 1   
   155  153  154 1   
   156  153  156 1   
   157  153  162 1   
   158  154  155 2   
   159  154  167 1   
   160  156  157 1   
   161  156  163 1   
   162  156  164 1   
   163  157  158 1   
   164  157  165 1   
   165  157  166 1   
   166  158  159 1   
   167  158  160 1   
   168  167  168 1   
   169  167  172 1   
   170  168  169 1   
   171  168  170 1   
   172  168  171 1   
   173  174  175 1   
   174  174  176 1   
   175  177  178 1   
   176  177  179 1   
@<TRIPOS>SUBSTRUCTURE
     1 MOL         1 TEMP              0 ****  ****    0 ROOT
