@<TRIPOS>MOLECULE
MOL
  189   185     1     0     0
SMALL
resp


@<TRIPOS>ATOM
      1 C1         -0.5170    3.0200    5.5750 c3        1 MOL     -0.235574
      2 C2         -0.9450    2.6380    4.1180 c         1 MOL      0.713517
      3 O1         -0.2110    3.0040    3.1970 o         1 MOL     -0.610219
      4 H1         -1.0250    3.9360    5.8750 hc        1 MOL      0.057783
      5 H2         -0.7890    2.2150    6.2580 hc        1 MOL      0.057783
      6 H3          0.5620    3.1760    5.6080 hc        1 MOL      0.057783
      7 N1         -1.9720    1.8210    3.9370 n         1 MOL     -0.591752
      8 C3         -2.5870    1.4130    2.6430 c3        1 MOL      0.091497
      9 C4         -3.2730    2.6460    1.9000 c         1 MOL      0.670247
     10 O2         -4.2330    3.1680    2.4950 o         1 MOL     -0.601350
     11 C5         -3.5860    0.2850    2.8170 c3        1 MOL     -0.215659
     12 C6         -3.9750   -0.3170    1.4520 c         1 MOL      0.779961
     13 O3         -3.3100   -0.0400    0.4480 o         1 MOL     -0.726441
     14 O4         -5.0870   -0.9640    1.3810 o         1 MOL     -0.726441
     15 H4         -2.4090    1.5840    4.8060 hn        1 MOL      0.322011
     16 H5         -1.7840    1.1320    1.9690 h1        1 MOL      0.028986
     17 H6         -4.4650    0.5920    3.3790 hc        1 MOL      0.054799
     18 H7         -3.0140   -0.4680    3.3690 hc        1 MOL      0.054799
     19 N2         -2.6690    3.1990    0.8590 n         1 MOL     -0.482387
     20 C7         -3.0310    4.5380    0.3400 c3        1 MOL      0.080420
     21 C8         -3.6530    4.5640   -1.0360 c         1 MOL      0.497233
     22 O5         -4.3240    5.5350   -1.3790 o         1 MOL     -0.577626
     23 C9         -1.7700    5.4510    0.4830 c3        1 MOL     -0.240642
     24 C10        -1.9690    6.9860    0.3010 c3        1 MOL     -0.129846
     25 C11        -3.2150    7.6060    0.9200 c3        1 MOL      0.013021
     26 C12        -3.0780    9.1340    0.8430 c3        1 MOL      0.100181
     27 N3         -4.0990    9.7470   -0.0930 n4        1 MOL     -0.484602
     28 H8         -1.8620    2.7700    0.4350 hn        1 MOL      0.325842
     29 H9         -3.8630    4.8830    0.9470 h1        1 MOL      0.065645
     30 H10        -1.0010    5.2220   -0.2610 hc        1 MOL      0.153341
     31 H11        -1.3120    5.2820    1.4520 hc        1 MOL      0.153341
     32 H12        -1.9730    7.2120   -0.7580 hc        1 MOL      0.038240
     33 H13        -1.1050    7.4870    0.7530 hc        1 MOL      0.038240
     34 H14        -3.1460    7.3070    1.9720 hc        1 MOL      0.044041
     35 H15        -4.1520    7.2370    0.5020 hc        1 MOL      0.044041
     36 H16        -2.0550    9.4100    0.5800 hx        1 MOL      0.061712
     37 H17        -3.2820    9.5450    1.8270 hx        1 MOL      0.061712
     38 H18        -3.8990   10.7140   -0.3010 hn        1 MOL      0.358724
     39 H19        -4.1120    9.2150   -0.9510 hn        1 MOL      0.358724
     40 H20        -4.9980    9.6440    0.3500 hn        1 MOL      0.358724
     41 N4         -3.6750    3.3890   -1.7070 n         1 MOL     -0.343637
     42 C13        -4.5820    3.1620   -2.8480 c3        1 MOL      0.113513
     43 C14        -5.7930    2.2970   -2.4270 c         1 MOL      0.412047
     44 O6         -6.8490    2.4180   -3.1120 o         1 MOL     -0.550615
     45 C15        -3.8440    2.3920   -4.0260 c3        1 MOL     -0.276778
     46 C16        -2.8870    1.2590   -3.5980 c         1 MOL      0.784843
     47 O7         -3.0460    0.8020   -2.4720 o         1 MOL     -0.714783
     48 O8         -2.0920    0.7420   -4.4270 o         1 MOL     -0.714783
     49 H21        -3.1450    2.6220   -1.3130 hn        1 MOL      0.213884
     50 H22        -4.8720    4.1440   -3.2080 h1        1 MOL      0.072439
     51 H23        -3.2050    3.1580   -4.4740 hc        1 MOL      0.069795
     52 H24        -4.4940    2.0870   -4.8450 hc        1 MOL      0.069795
     53 N5         -5.7780    1.5210   -1.2800 n         1 MOL     -0.196298
     54 C17        -6.9700    0.9170   -0.6410 c3        1 MOL     -0.184847
     55 C18        -7.2340   -0.5370   -1.1300 c         1 MOL      0.601329
     56 O9         -8.3720   -0.9500   -0.9620 o         1 MOL     -0.587153
     57 H25        -4.8500    1.3340   -0.9330 hn        1 MOL      0.151786
     58 H26        -7.8310    1.5950   -0.6990 h1        1 MOL      0.117797
     59 H27        -6.6830    0.9090    0.4050 h1        1 MOL      0.117797
     60 N6         -6.3070   -1.2950   -1.7170 n         1 MOL     -0.367284
     61 C19        -6.5130   -2.6650   -2.1730 c3        1 MOL      0.073813
     62 C20        -6.4830   -3.7120   -1.0470 c         1 MOL      0.421071
     63 O10        -7.0110   -4.8380   -1.1700 o         1 MOL     -0.574929
     64 C21        -5.4740   -2.9220   -3.3360 c3        1 MOL     -0.434462
     65 C22        -3.9900   -2.5460   -2.9690 c         1 MOL      0.744685
     66 O11        -3.1700   -2.6180   -3.9090 o         1 MOL     -0.640026
     67 O12        -3.6210   -2.2590   -1.7740 o         1 MOL     -0.640026
     68 H28        -5.4120   -0.8430   -1.8320 hn        1 MOL      0.284659
     69 H29        -7.5350   -2.7460   -2.5280 h1        1 MOL      0.091639
     70 H30        -5.7900   -2.2770   -4.1520 hc        1 MOL      0.135727
     71 H31        -5.5080   -3.9860   -3.5650 hc        1 MOL      0.135727
     72 N7         -5.9030   -3.4120    0.0990 n         1 MOL     -0.148155
     73 C23        -5.8620   -4.2740    1.2870 c3        1 MOL     -0.159207
     74 C24        -4.5010   -4.8260    1.7030 c         1 MOL      0.472036
     75 O13        -4.4410   -5.6800    2.5970 o         1 MOL     -0.575723
     76 H32        -5.6600   -2.4530    0.3060 hn        1 MOL      0.246362
     77 H33        -6.4700   -5.1310    0.9900 h1        1 MOL      0.108453
     78 H34        -6.3820   -3.9240    2.1750 h1        1 MOL      0.108453
     79 N8         -3.4040   -4.5220    0.9750 n         1 MOL     -0.168445
     80 C25        -2.0520   -4.9800    1.2280 c3        1 MOL     -0.036144
     81 C26        -1.0760   -3.8090    1.3110 c         1 MOL      0.781405
     82 O14        -1.3480   -2.7870    0.6080 o         1 MOL     -0.658408
     83 C27        -1.6700   -5.9430    0.1580 c3        1 MOL      0.336963
     84 C28        -1.7600   -7.3810    0.5570 c3        1 MOL     -0.336924
     85 O15        -2.2640   -5.7370   -1.1380 oh        1 MOL     -0.608307
     86 H35        -3.5330   -3.7470    0.3350 hn        1 MOL      0.057960
     87 H36        -1.9400   -5.4440    2.2080 h1        1 MOL      0.050438
     88 H37        -0.5940   -5.7980    0.0140 h1        1 MOL      0.035105
     89 H38        -3.1650   -6.0420   -1.0810 ho        1 MOL      0.402356
     90 H39        -1.2450   -8.0530   -0.1310 hc        1 MOL      0.080005
     91 H40        -1.3150   -7.6610    1.5160 hc        1 MOL      0.080005
     92 H41        -2.8170   -7.6570    0.5810 hc        1 MOL      0.080005
     93 N9         -0.0440   -3.8440    2.1390 n         1 MOL     -0.828137
     94 C29         0.9150   -2.7320    2.3370 c3        1 MOL      0.033734
     95 C30         2.2350   -3.1450    1.6130 c         1 MOL      0.741487
     96 O16         2.7680   -4.1450    2.0620 o         1 MOL     -0.605997
     97 C31         1.0800   -2.4560    3.8300 c3        1 MOL      0.247959
     98 C32        -0.2440   -1.8210    4.4320 c3        1 MOL      0.188160
     99 C33         2.2490   -1.4920    4.0640 c3        1 MOL     -0.261505
    100 C34        -0.3440   -1.9170    5.9450 c3        1 MOL     -0.320085
    101 H42         0.0610   -4.6700    2.7200 hn        1 MOL      0.371904
    102 H43         0.6040   -1.8210    1.8190 h1        1 MOL      0.030797
    103 H44         1.4060   -3.3300    4.3900 hc        1 MOL     -0.020505
    104 H45        -1.1140   -2.2820    3.9620 hc        1 MOL     -0.007444
    105 H46        -0.2520   -0.7590    4.2020 hc        1 MOL     -0.007444
    106 H47         2.3740   -1.2600    5.1260 hc        1 MOL      0.029243
    107 H48         3.2180   -1.8200    3.6840 hc        1 MOL      0.029243
    108 H49         1.9340   -0.5820    3.5560 hc        1 MOL      0.029243
    109 H50        -1.1720   -1.3250    6.3620 hc        1 MOL      0.066413
    110 H51        -0.4770   -2.9760    6.1540 hc        1 MOL      0.066413
    111 H52         0.5640   -1.4630    6.3320 hc        1 MOL      0.066413
    112 N10         2.7950   -2.3100    0.7570 n         1 MOL     -0.516880
    113 C35         4.0330   -2.5610   -0.0180 c3        1 MOL      0.024858
    114 C36         5.2050   -1.8530    0.6890 c         1 MOL      0.377859
    115 O17         5.1390   -0.9130    1.4440 o         1 MOL     -0.331170
    116 C37         3.9600   -1.9960   -1.4430 c3        1 MOL     -0.020322
    117 C38         2.8410   -2.5670   -2.2820 c3        1 MOL     -0.261759
    118 O18         3.8940   -0.6060   -1.4110 oh        1 MOL     -0.253828
    119 H53         2.2900   -1.4400    0.6460 hn        1 MOL      0.424529
    120 H54         4.2460   -3.6320   -0.0450 h1        1 MOL      0.098714
    121 H55         4.8770   -2.2260   -1.9690 h1        1 MOL      0.035952
    122 H56         3.6240   -0.2420   -2.2600 ho        1 MOL      0.350746
    123 H57         2.8910   -2.1300   -3.2690 hc        1 MOL      0.091319
    124 H58         2.9610   -3.6500   -2.4010 hc        1 MOL      0.091319
    125 H59         1.8760   -2.1730   -1.9660 hc        1 MOL      0.091319
    126 N11         6.4330   -2.1300    0.2520 n         1 MOL     -0.274476
    127 C39         7.6350   -1.3990    0.5520 c3        1 MOL     -0.101414
    128 C40         7.5630    0.0970    0.1860 c         1 MOL      0.278744
    129 O19         8.0940    0.9560    0.9520 o         1 MOL     -0.472999
    130 C41         8.8410   -1.9910   -0.2400 c3        1 MOL      0.172434
    131 C42         9.1780   -3.3610    0.4160 c3        1 MOL     -0.433056
    132 O20         8.4910   -2.2920   -1.5480 oh        1 MOL     -0.626577
    133 H60         6.5290   -2.8580   -0.4300 hn        1 MOL      0.242217
    134 H61         7.8390   -1.6280    1.6000 h1        1 MOL      0.156188
    135 H62         9.7400   -1.4010   -0.0530 h1        1 MOL      0.077478
    136 H63         9.1860   -2.7940   -1.9710 ho        1 MOL      0.433425
    137 H64         9.5490   -3.2520    1.4350 hc        1 MOL      0.128447
    138 H65         8.3090   -4.0050    0.5240 hc        1 MOL      0.128447
    139 H66         9.9880   -3.8090   -0.1600 hc        1 MOL      0.128447
    140 N12         6.8770    0.4820   -0.9140 n         1 MOL     -0.086576
    141 C43         6.7230    1.9370   -1.1870 c3        1 MOL      0.015185
    142 C44         5.7320    2.7340   -0.2960 c         1 MOL      0.303318
    143 O21         6.0550    3.8480    0.1030 o         1 MOL     -0.472978
    144 C45         6.4910    2.2530   -2.6980 c3        1 MOL     -0.338364
    145 C46         7.1210    1.3700   -3.7710 c3        1 MOL      0.022291
    146 C47         8.6530    1.3810   -3.7170 c3        1 MOL      0.140292
    147 C48         9.1700    0.2110   -4.5820 c3        1 MOL      0.049701
    148 N13        10.5930    0.4080   -4.8570 n4        1 MOL     -0.396937
    149 H67         6.5040   -0.2040   -1.5520 hn        1 MOL      0.164656
    150 H68         7.6530    2.4640   -0.9650 h1        1 MOL      0.077846
    151 H69         6.7780    3.2840   -2.8960 hc        1 MOL      0.118154
    152 H70         5.4110    2.1510   -2.8190 hc        1 MOL      0.118154
    153 H71         6.8490    1.7440   -4.7590 hc        1 MOL      0.004777
    154 H72         6.6680    0.3870   -3.6820 hc        1 MOL      0.004777
    155 H73         9.0290    1.2890   -2.7030 hc        1 MOL      0.011455
    156 H74         8.9980    2.3480   -4.0750 hc        1 MOL      0.011455
    157 H75         8.5410    0.1470   -5.4660 hx        1 MOL      0.054919
    158 H76         9.0850   -0.7160   -4.0340 hx        1 MOL      0.054919
    159 H77        10.6790    1.1970   -5.4780 hn        1 MOL      0.308149
    160 H78        11.1350    0.5050   -4.0120 hn        1 MOL      0.308149
    161 H79        10.9420   -0.4320   -5.2860 hn        1 MOL      0.308149
    162 N14         4.6410    2.0720    0.1030 n         1 MOL      0.011436
    163 C49         3.6660    2.4910    1.0880 c3        1 MOL     -0.187602
    164 C50         4.2080    2.6910    2.4860 c         1 MOL      0.397042
    165 O22         3.8510    3.6540    3.1780 o         1 MOL     -0.509991
    166 C51         2.5110    1.4880    1.0690 c3        1 MOL      0.252798
    167 C52         1.6560    1.8440   -0.1750 c3        1 MOL     -0.205183
    168 C53         0.4770    0.9180   -0.3110 c         1 MOL      0.790185
    169 O23        -0.6560    1.4450   -0.5690 o         1 MOL     -0.767355
    170 O24         0.6300   -0.3140   -0.1150 o         1 MOL     -0.767355
    171 H80         4.6270    1.1320   -0.2510 hn        1 MOL      0.027319
    172 H81         3.1720    3.4400    0.8840 h1        1 MOL      0.122616
    173 H82         1.8540    1.7040    1.9080 hc        1 MOL     -0.027236
    174 H83         2.8800    0.4740    0.9250 hc        1 MOL     -0.027236
    175 H84         2.3050    1.7850   -1.0490 hc        1 MOL     -0.022599
    176 H85         1.2810    2.8450    0.0190 hc        1 MOL     -0.022599
    177 N15         5.1480    1.7850    2.8980 n         1 MOL     -0.076040
    178 C54         5.8430    1.9450    4.1870 c3        1 MOL     -0.311498
    179 H86         6.9120    1.7860    4.0450 h1        1 MOL      0.117590
    180 H87         5.6750    2.9520    4.5690 h1        1 MOL      0.117590
    181 H88         5.4600    1.2160    4.9000 h1        1 MOL      0.117590
    182 H89         5.2750    0.9400    2.3510 hn        1 MOL      0.142924
    183 Ca1        -1.5720   -0.9360   -1.1670 Ca        1 MOL      1.745365
    184 O25        -0.6080   -3.1020   -2.3160 oh        1 MOL     -0.881280
    185 H90        -1.4880   -3.3130   -2.6260 ho        1 MOL      0.404671
    186 H91        -0.0310   -3.6880   -2.7960 ho        1 MOL      0.404671
    187 O26         0.0840   -0.1680   -3.1270 oh        1 MOL     -0.881280
    188 H92         0.9030    0.0030   -3.6020 ho        1 MOL      0.404671
    189 H93        -0.5950    0.1740   -3.7030 ho        1 MOL      0.404671
@<TRIPOS>BOND
     1    1    2 1   
     2    1    4 1   
     3    1    5 1   
     4    1    6 1   
     5    2    3 2   
     6    2    7 1   
     7    7    8 1   
     8    7   15 1   
     9    8    9 1   
    10    8   11 1   
    11    8   16 1   
    12    9   10 2   
    13    9   19 1   
    14   11   12 1   
    15   11   17 1   
    16   11   18 1   
    17   12   13 1   
    18   12   14 1   
    19   19   20 1   
    20   19   28 1   
    21   20   21 1   
    22   20   23 1   
    23   20   29 1   
    24   21   22 2   
    25   21   41 1   
    26   23   24 1   
    27   23   30 1   
    28   23   31 1   
    29   24   25 1   
    30   24   32 1   
    31   24   33 1   
    32   25   26 1   
    33   25   34 1   
    34   25   35 1   
    35   26   27 1   
    36   26   36 1   
    37   26   37 1   
    38   27   38 1   
    39   27   39 1   
    40   27   40 1   
    41   41   42 1   
    42   41   49 1   
    43   42   43 1   
    44   42   45 1   
    45   42   50 1   
    46   43   44 2   
    47   43   53 1   
    48   45   46 1   
    49   45   51 1   
    50   45   52 1   
    51   46   47 1   
    52   46   48 1   
    53   53   54 1   
    54   53   57 1   
    55   54   55 1   
    56   54   58 1   
    57   54   59 1   
    58   55   56 2   
    59   55   60 1   
    60   60   61 1   
    61   60   68 1   
    62   61   62 1   
    63   61   64 1   
    64   61   69 1   
    65   62   63 2   
    66   62   72 1   
    67   64   65 1   
    68   64   70 1   
    69   64   71 1   
    70   65   66 1   
    71   65   67 1   
    72   72   73 1   
    73   72   76 1   
    74   73   74 1   
    75   73   77 1   
    76   73   78 1   
    77   74   75 2   
    78   74   79 1   
    79   79   80 1   
    80   79   86 1   
    81   80   81 1   
    82   80   83 1   
    83   80   87 1   
    84   81   82 2   
    85   81   93 1   
    86   83   84 1   
    87   83   85 1   
    88   83   88 1   
    89   84   90 1   
    90   84   91 1   
    91   84   92 1   
    92   85   89 1   
    93   93   94 1   
    94   93  101 1   
    95   94   95 1   
    96   94   97 1   
    97   94  102 1   
    98   95   96 2   
    99   95  112 1   
   100   97   98 1   
   101   97   99 1   
   102   97  103 1   
   103   98  100 1   
   104   98  104 1   
   105   98  105 1   
   106   99  106 1   
   107   99  107 1   
   108   99  108 1   
   109  100  109 1   
   110  100  110 1   
   111  100  111 1   
   112  112  113 1   
   113  112  119 1   
   114  113  114 1   
   115  113  116 1   
   116  113  120 1   
   117  114  115 2   
   118  114  126 1   
   119  116  117 1   
   120  116  118 1   
   121  116  121 1   
   122  117  123 1   
   123  117  124 1   
   124  117  125 1   
   125  118  122 1   
   126  126  127 1   
   127  126  133 1   
   128  127  128 1   
   129  127  130 1   
   130  127  134 1   
   131  128  129 2   
   132  128  140 1   
   133  130  131 1   
   134  130  132 1   
   135  130  135 1   
   136  131  137 1   
   137  131  138 1   
   138  131  139 1   
   139  132  136 1   
   140  140  141 1   
   141  140  149 1   
   142  141  142 1   
   143  141  144 1   
   144  141  150 1   
   145  142  143 2   
   146  142  162 1   
   147  144  145 1   
   148  144  151 1   
   149  144  152 1   
   150  145  146 1   
   151  145  153 1   
   152  145  154 1   
   153  146  147 1   
   154  146  155 1   
   155  146  156 1   
   156  147  148 1   
   157  147  157 1   
   158  147  158 1   
   159  148  159 1   
   160  148  160 1   
   161  148  161 1   
   162  162  163 1   
   163  162  171 1   
   164  163  164 1   
   165  163  166 1   
   166  163  172 1   
   167  164  165 2   
   168  164  177 1   
   169  166  167 1   
   170  166  173 1   
   171  166  174 1   
   172  167  168 1   
   173  167  175 1   
   174  167  176 1   
   175  168  169 1   
   176  168  170 1   
   177  177  178 1   
   178  177  182 1   
   179  178  179 1   
   180  178  180 1   
   181  178  181 1   
   182  184  185 1   
   183  184  186 1   
   184  187  188 1   
   185  187  189 1   
@<TRIPOS>SUBSTRUCTURE
     1 MOL         1 TEMP              0 ****  ****    0 ROOT
