@<TRIPOS>MOLECULE
MOL
  189   185     1     0     0
SMALL
resp


@<TRIPOS>ATOM
      1 C1          0.0110    2.7160    5.7240 c3        1 MOL     -0.330673
      2 C2         -0.4090    2.5050    4.2880 c         1 MOL      0.744239
      3 O1          0.3740    2.8140    3.3950 o         1 MOL     -0.650356
      4 H1          1.0780    2.5180    5.8240 hc        1 MOL      0.081334
      5 H2         -0.1960    3.7460    6.0150 hc        1 MOL      0.081334
      6 H3         -0.5470    2.0370    6.3700 hc        1 MOL      0.081334
      7 N1         -1.6750    2.1620    4.0490 n         1 MOL     -0.507781
      8 C3         -2.2740    1.9620    2.7240 c3        1 MOL     -0.094271
      9 C4         -2.9400    3.1710    2.1180 c         1 MOL      0.607946
     10 O2         -3.7530    3.8290    2.7240 o         1 MOL     -0.549836
     11 C5         -3.3750    0.8970    3.0570 c3        1 MOL     -0.088088
     12 C6         -4.1640    0.6580    1.7500 c         1 MOL      0.693573
     13 O3         -5.3800    0.6650    1.8330 o         1 MOL     -0.675991
     14 O4         -3.4150    0.4530    0.7640 o         1 MOL     -0.675991
     15 H4         -2.2750    1.9900    4.8370 hn        1 MOL      0.287011
     16 H5         -1.5560    1.5950    2.0020 h1        1 MOL      0.099576
     17 H6         -4.1800    1.2330    3.7100 hc        1 MOL      0.031859
     18 H7         -2.9170   -0.0140    3.4310 hc        1 MOL      0.031859
     19 N2         -2.4990    3.6340    0.9070 n         1 MOL     -0.456272
     20 C7         -2.9480    4.8260    0.2490 c3        1 MOL      0.216517
     21 C8         -4.1870    4.6890   -0.7490 c         1 MOL      0.371550
     22 O5         -4.9130    5.6720   -0.9830 o         1 MOL     -0.573258
     23 C9         -1.7610    5.5480   -0.4180 c3        1 MOL      0.045413
     24 C10        -0.6120    5.8140    0.5880 c3        1 MOL      0.007987
     25 C11        -0.9220    6.3420    2.0070 c3        1 MOL     -0.051624
     26 C12         0.2530    6.0730    2.9090 c3        1 MOL     -0.088200
     27 N3         -0.0420    6.6920    4.2490 n4        1 MOL     -0.272069
     28 H8         -1.8740    3.0410    0.3670 hn        1 MOL      0.375779
     29 H9         -3.2540    5.5320    1.0210 h1        1 MOL     -0.013954
     30 H10        -2.0860    6.5100   -0.8030 hc        1 MOL     -0.008138
     31 H11        -1.5060    4.9180   -1.2610 hc        1 MOL     -0.008138
     32 H12        -0.0750    6.6280    0.1100 hc        1 MOL     -0.015308
     33 H13         0.0370    4.9420    0.6130 hc        1 MOL     -0.015308
     34 H14        -1.7940    5.8430    2.4150 hc        1 MOL      0.048073
     35 H15        -1.2470    7.3810    2.0590 hc        1 MOL      0.048073
     36 H16         1.2100    6.5010    2.6110 hx        1 MOL      0.123123
     37 H17         0.3450    4.9880    2.9060 hx        1 MOL      0.123123
     38 H18        -0.8290    6.2230    4.6770 hn        1 MOL      0.297644
     39 H19         0.6760    6.5820    4.9570 hn        1 MOL      0.297644
     40 H20        -0.2350    7.6770    4.2660 hn        1 MOL      0.297644
     41 N4         -4.4140    3.4830   -1.2780 n         1 MOL     -0.093226
     42 C13        -5.3090    3.2170   -2.4360 c3        1 MOL     -0.056788
     43 C14        -6.3800    2.1180   -2.1340 c         1 MOL      0.540975
     44 O6         -7.0250    1.7540   -3.1320 o         1 MOL     -0.522907
     45 C15        -4.4090    2.8340   -3.6910 c3        1 MOL     -0.151745
     46 C16        -3.3240    1.8330   -3.4760 c         1 MOL      0.887017
     47 O7         -3.1220    1.2810   -2.3710 o         1 MOL     -0.773412
     48 O8         -2.6170    1.5450   -4.4630 o         1 MOL     -0.773412
     49 H21        -3.7590    2.7720   -1.0060 hn        1 MOL     -0.008797
     50 H22        -5.8000    4.1320   -2.7720 h1        1 MOL      0.111645
     51 H23        -4.0160    3.7670   -4.0850 hc        1 MOL      0.032749
     52 H24        -5.1790    2.4470   -4.3480 hc        1 MOL      0.032749
     53 N5         -6.6200    1.7200   -0.8920 n         1 MOL     -0.455209
     54 C17        -7.8260    0.9610   -0.4990 c3        1 MOL     -0.152490
     55 C18        -7.8410   -0.5660   -0.8160 c         1 MOL      0.534348
     56 O9         -8.8260   -1.2470   -0.5690 o         1 MOL     -0.577710
     57 H25        -5.9910    1.9640   -0.1370 hn        1 MOL      0.315803
     58 H26        -8.7130    1.4270   -0.9090 h1        1 MOL      0.128341
     59 H27        -7.9860    0.9970    0.5810 h1        1 MOL      0.128341
     60 N6         -6.7570   -1.1500   -1.2900 n         1 MOL     -0.287599
     61 C19        -6.6260   -2.5360   -1.7470 c3        1 MOL     -0.018134
     62 C20        -6.3500   -3.5530   -0.5900 c         1 MOL      0.377633
     63 O10        -6.5090   -4.7580   -0.7630 o         1 MOL     -0.524876
     64 C21        -5.4150   -2.6280   -2.6840 c3        1 MOL     -0.335413
     65 C22        -4.1190   -2.0650   -2.1370 c         1 MOL      0.680507
     66 O11        -3.3500   -1.5400   -2.9560 o         1 MOL     -0.663354
     67 O12        -3.8040   -2.3020   -0.9300 o         1 MOL     -0.663354
     68 H28        -6.0440   -0.5750   -1.7270 hn        1 MOL      0.222361
     69 H29        -7.6040   -2.8160   -2.1480 h1        1 MOL      0.128829
     70 H30        -5.6320   -2.0290   -3.5630 hc        1 MOL      0.110755
     71 H31        -5.2790   -3.6680   -2.9630 hc        1 MOL      0.110755
     72 N7         -6.0520   -3.1110    0.6220 n         1 MOL     -0.126517
     73 C23        -5.7990   -4.0000    1.7630 c3        1 MOL     -0.120703
     74 C24        -4.4250   -4.7560    1.6800 c         1 MOL      0.460441
     75 O13        -4.3670   -5.8550    2.2060 o         1 MOL     -0.556005
     76 H32        -5.9540   -2.1170    0.7550 hn        1 MOL      0.196225
     77 H33        -6.6700   -4.6250    1.9510 h1        1 MOL      0.084955
     78 H34        -5.7380   -3.3650    2.6520 h1        1 MOL      0.084955
     79 N8         -3.4230   -4.2550    1.0490 n         1 MOL     -0.040610
     80 C25        -2.0430   -4.6990    1.2620 c3        1 MOL     -0.414897
     81 C26        -1.0400   -3.5030    1.2600 c         1 MOL      0.859819
     82 O14        -1.2940   -2.4630    0.7650 o         1 MOL     -0.698197
     83 C27        -1.5520   -5.6770    0.1990 c3        1 MOL      0.510870
     84 C28        -2.1570   -7.0360    0.3610 c3        1 MOL     -0.445339
     85 O15        -1.9070   -5.1530   -1.1020 oh        1 MOL     -0.683856
     86 H35        -3.5970   -3.3120    0.7380 hn        1 MOL      0.120718
     87 H36        -1.9880   -5.1130    2.2670 h1        1 MOL      0.125281
     88 H37        -0.4770   -5.8640    0.2430 h1        1 MOL      0.025668
     89 H38        -2.7600   -4.7340   -1.1050 ho        1 MOL      0.427445
     90 H39        -2.1980   -7.2590    1.4320 hc        1 MOL      0.115146
     91 H40        -3.1850   -6.9850   -0.0150 hc        1 MOL      0.115146
     92 H41        -1.6260   -7.7920   -0.1980 hc        1 MOL      0.115146
     93 N9          0.1500   -3.8030    1.6870 n         1 MOL     -0.687445
     94 C29         1.3450   -2.8820    1.6690 c3        1 MOL      0.414140
     95 C30         2.4390   -3.5250    0.7040 c         1 MOL      0.285753
     96 O16         2.7770   -4.6860    0.7670 o         1 MOL     -0.527119
     97 C31         1.9050   -2.6970    3.0450 c3        1 MOL      0.003371
     98 C32         0.9510   -1.8120    3.9230 c3        1 MOL     -0.030571
     99 C33         3.3250   -2.1190    3.1480 c3        1 MOL     -0.137287
    100 C34         1.0150   -2.1950    5.3980 c3        1 MOL     -0.231757
    101 H42         0.2030   -4.7230    2.1060 hn        1 MOL      0.293939
    102 H43         1.1880   -1.8640    1.3110 h1        1 MOL     -0.060225
    103 H44         1.9520   -3.7050    3.4490 hc        1 MOL      0.020719
    104 H45        -0.0490   -1.9050    3.5050 hc        1 MOL      0.041216
    105 H46         1.2200   -0.7510    3.9690 hc        1 MOL      0.041216
    106 H47         3.3490   -1.1440    2.6710 hc        1 MOL      0.021427
    107 H48         3.6400   -2.1350    4.1900 hc        1 MOL      0.021427
    108 H49         4.0360   -2.7700    2.6450 hc        1 MOL      0.021427
    109 H50         2.0570   -2.0140    5.6900 hc        1 MOL      0.058555
    110 H51         0.3520   -1.6020    6.0300 hc        1 MOL      0.058555
    111 H52         0.7090   -3.2310    5.5380 hc        1 MOL      0.058555
    112 N10         2.9360   -2.6830   -0.1440 n         1 MOL     -0.033688
    113 C35         4.0900   -2.8450   -1.0290 c3        1 MOL      0.161626
    114 C36         5.3720   -2.3590   -0.4770 c         1 MOL      0.317586
    115 O17         5.5000   -1.9630    0.7120 o         1 MOL     -0.405039
    116 C37         3.8540   -2.0770   -2.3370 c3        1 MOL     -0.005838
    117 C38         2.4600   -2.4520   -2.9580 c3        1 MOL     -0.267784
    118 O18         3.7510   -0.6380   -2.0660 oh        1 MOL     -0.431414
    119 H53         2.4550   -1.7930   -0.1120 hn        1 MOL      0.133506
    120 H54         4.1530   -3.9100   -1.2340 h1        1 MOL      0.065296
    121 H55         4.6900   -2.3630   -2.9760 h1        1 MOL      0.074559
    122 H56         3.3280   -0.4300   -2.9080 ho        1 MOL      0.346207
    123 H57         2.1960   -3.4760   -2.6690 hc        1 MOL      0.087023
    124 H58         1.7420   -1.7770   -2.5080 hc        1 MOL      0.087023
    125 H59         2.4930   -2.3760   -4.0430 hc        1 MOL      0.087023
    126 N11         6.4780   -2.4630   -1.2240 n         1 MOL     -0.316137
    127 C39         7.8220   -1.9780   -0.7690 c3        1 MOL      0.019600
    128 C40         7.8140   -0.4600   -0.8550 c         1 MOL      0.255329
    129 O19         8.5490    0.1290   -0.0870 o         1 MOL     -0.451198
    130 C41         8.9060   -2.6310   -1.6270 c3        1 MOL      0.560539
    131 C42        10.3140   -2.4500   -1.1000 c3        1 MOL     -0.533076
    132 O20         8.7700   -4.0290   -1.7220 oh        1 MOL     -0.631306
    133 H60         6.4170   -2.9190   -2.1220 hn        1 MOL      0.192123
    134 H61         7.9450   -2.2200    0.2890 h1        1 MOL      0.126020
    135 H62         8.8660   -2.2600   -2.6530 h1        1 MOL     -0.073190
    136 H63         9.2450   -4.2550   -2.5220 ho        1 MOL      0.383851
    137 H64        10.3570   -2.8290   -0.0780 hc        1 MOL      0.135289
    138 H65        11.0460   -3.1150   -1.5840 hc        1 MOL      0.135289
    139 H66        10.7060   -1.4350   -1.2080 hc        1 MOL      0.135289
    140 N12         6.8940    0.2050   -1.5760 n         1 MOL     -0.182868
    141 C43         6.6920    1.6600   -1.4300 c3        1 MOL     -0.004356
    142 C44         6.1700    2.0420   -0.0770 c         1 MOL      0.312316
    143 O21         6.8000    2.8150    0.6220 o         1 MOL     -0.452004
    144 C45         5.8540    2.1880   -2.6250 c3        1 MOL     -0.139347
    145 C46         5.9340    3.7140   -2.7110 c3        1 MOL     -0.100404
    146 C47         4.8510    4.3550   -3.5950 c3        1 MOL     -0.117864
    147 C48         4.9070    3.5280   -4.8680 c3        1 MOL      0.142056
    148 N13         3.9130    3.9950   -5.8330 n4        1 MOL     -0.423575
    149 H67         6.3710   -0.3500   -2.2400 hn        1 MOL      0.150295
    150 H68         7.6410    2.1690   -1.5890 h1        1 MOL      0.111525
    151 H69         4.8380    1.8370   -2.4560 hc        1 MOL      0.048742
    152 H70         6.1790    1.7780   -3.5830 hc        1 MOL      0.048742
    153 H71         6.9410    4.1060   -2.8510 hc        1 MOL      0.087169
    154 H72         5.9000    4.0340   -1.6730 hc        1 MOL      0.087169
    155 H73         5.0180    5.4330   -3.6340 hc        1 MOL      0.073962
    156 H74         3.8450    4.2150   -3.2070 hc        1 MOL      0.073962
    157 H75         4.6470    2.4840   -4.7260 hx        1 MOL      0.062184
    158 H76         5.9280    3.6190   -5.2410 hx        1 MOL      0.062184
    159 H77         2.9710    3.8550   -5.4940 hn        1 MOL      0.343076
    160 H78         4.0780    4.9570   -6.0890 hn        1 MOL      0.343076
    161 H79         3.9380    3.5030   -6.7150 hn        1 MOL      0.343076
    162 N14         4.9530    1.5040    0.3120 n         1 MOL     -0.014772
    163 C49         4.1480    1.7100    1.4930 c3        1 MOL     -0.185993
    164 C50         4.7360    1.0670    2.7700 c         1 MOL      0.434977
    165 O22         4.6440    1.7510    3.8100 o         1 MOL     -0.553824
    166 C51         2.7740    1.1120    1.2240 c3        1 MOL      0.067894
    167 C52         1.9480    1.9230    0.1510 c3        1 MOL     -0.115459
    168 C53         0.5850    1.2690   -0.1140 c         1 MOL      0.594851
    169 O23         0.5690    0.0140   -0.0120 o         1 MOL     -0.713365
    170 O24        -0.4900    1.8770   -0.3770 o         1 MOL     -0.713365
    171 H80         4.5100    0.9800   -0.4310 hn        1 MOL     -0.042201
    172 H81         3.9970    2.7750    1.6870 h1        1 MOL      0.096806
    173 H82         2.1580    1.0220    2.1190 hc        1 MOL      0.090468
    174 H83         2.8260    0.1410    0.7450 hc        1 MOL      0.090468
    175 H84         2.5750    1.9560   -0.7410 hc        1 MOL      0.031178
    176 H85         1.7670    2.9560    0.4360 hc        1 MOL      0.031178
    177 N15         5.5710    0.0370    2.5820 n         1 MOL     -0.004809
    178 C54         6.5130   -0.3950    3.6310 c3        1 MOL     -0.249393
    179 H86         6.0740   -0.2120    4.6110 h1        1 MOL      0.092619
    180 H87         6.7190   -1.4600    3.5190 h1        1 MOL      0.092619
    181 H88         7.4430    0.1660    3.5390 h1        1 MOL      0.092619
    182 H89         5.6420   -0.3310    1.6440 hn        1 MOL      0.189111
    183 Ca1        -1.7690   -0.4520   -1.0410 Ca        1 MOL      1.738261
    184 O25        -0.6410   -0.0960   -3.5510 oh        1 MOL     -0.821949
    185 H90        -0.0370   -0.3340   -4.2590 ho        1 MOL      0.386765
    186 H91        -1.3550    0.3620   -3.9900 ho        1 MOL      0.386765
    187 O26        -0.8600   -2.7680   -2.4080 oh        1 MOL     -0.821949
    188 H92        -1.2380   -2.7270   -3.2840 ho        1 MOL      0.386765
    189 H93        -1.1310   -3.6240   -2.0620 ho        1 MOL      0.386765
@<TRIPOS>BOND
     1    1    2 1   
     2    1    4 1   
     3    1    5 1   
     4    1    6 1   
     5    2    3 2   
     6    2    7 1   
     7    7    8 1   
     8    7   15 1   
     9    8    9 1   
    10    8   11 1   
    11    8   16 1   
    12    9   10 2   
    13    9   19 1   
    14   11   12 1   
    15   11   17 1   
    16   11   18 1   
    17   12   13 1   
    18   12   14 1   
    19   19   20 1   
    20   19   28 1   
    21   20   21 1   
    22   20   23 1   
    23   20   29 1   
    24   21   22 2   
    25   21   41 1   
    26   23   24 1   
    27   23   30 1   
    28   23   31 1   
    29   24   25 1   
    30   24   32 1   
    31   24   33 1   
    32   25   26 1   
    33   25   34 1   
    34   25   35 1   
    35   26   27 1   
    36   26   36 1   
    37   26   37 1   
    38   27   38 1   
    39   27   39 1   
    40   27   40 1   
    41   41   42 1   
    42   41   49 1   
    43   42   43 1   
    44   42   45 1   
    45   42   50 1   
    46   43   44 2   
    47   43   53 1   
    48   45   46 1   
    49   45   51 1   
    50   45   52 1   
    51   46   47 1   
    52   46   48 1   
    53   53   54 1   
    54   53   57 1   
    55   54   55 1   
    56   54   58 1   
    57   54   59 1   
    58   55   56 2   
    59   55   60 1   
    60   60   61 1   
    61   60   68 1   
    62   61   62 1   
    63   61   64 1   
    64   61   69 1   
    65   62   63 2   
    66   62   72 1   
    67   64   65 1   
    68   64   70 1   
    69   64   71 1   
    70   65   66 1   
    71   65   67 1   
    72   72   73 1   
    73   72   76 1   
    74   73   74 1   
    75   73   77 1   
    76   73   78 1   
    77   74   75 2   
    78   74   79 1   
    79   79   80 1   
    80   79   86 1   
    81   80   81 1   
    82   80   83 1   
    83   80   87 1   
    84   81   82 2   
    85   81   93 1   
    86   83   84 1   
    87   83   85 1   
    88   83   88 1   
    89   84   90 1   
    90   84   91 1   
    91   84   92 1   
    92   85   89 1   
    93   93   94 1   
    94   93  101 1   
    95   94   95 1   
    96   94   97 1   
    97   94  102 1   
    98   95   96 2   
    99   95  112 1   
   100   97   98 1   
   101   97   99 1   
   102   97  103 1   
   103   98  100 1   
   104   98  104 1   
   105   98  105 1   
   106   99  106 1   
   107   99  107 1   
   108   99  108 1   
   109  100  109 1   
   110  100  110 1   
   111  100  111 1   
   112  112  113 1   
   113  112  119 1   
   114  113  114 1   
   115  113  116 1   
   116  113  120 1   
   117  114  115 2   
   118  114  126 1   
   119  116  117 1   
   120  116  118 1   
   121  116  121 1   
   122  117  123 1   
   123  117  124 1   
   124  117  125 1   
   125  118  122 1   
   126  126  127 1   
   127  126  133 1   
   128  127  128 1   
   129  127  130 1   
   130  127  134 1   
   131  128  129 2   
   132  128  140 1   
   133  130  131 1   
   134  130  132 1   
   135  130  135 1   
   136  131  137 1   
   137  131  138 1   
   138  131  139 1   
   139  132  136 1   
   140  140  141 1   
   141  140  149 1   
   142  141  142 1   
   143  141  144 1   
   144  141  150 1   
   145  142  143 2   
   146  142  162 1   
   147  144  145 1   
   148  144  151 1   
   149  144  152 1   
   150  145  146 1   
   151  145  153 1   
   152  145  154 1   
   153  146  147 1   
   154  146  155 1   
   155  146  156 1   
   156  147  148 1   
   157  147  157 1   
   158  147  158 1   
   159  148  159 1   
   160  148  160 1   
   161  148  161 1   
   162  162  163 1   
   163  162  171 1   
   164  163  164 1   
   165  163  166 1   
   166  163  172 1   
   167  164  165 2   
   168  164  177 1   
   169  166  167 1   
   170  166  173 1   
   171  166  174 1   
   172  167  168 1   
   173  167  175 1   
   174  167  176 1   
   175  168  169 1   
   176  168  170 1   
   177  177  178 1   
   178  177  182 1   
   179  178  179 1   
   180  178  180 1   
   181  178  181 1   
   182  184  185 1   
   183  184  186 1   
   184  187  188 1   
   185  187  189 1   
@<TRIPOS>SUBSTRUCTURE
     1 MOL         1 TEMP              0 ****  ****    0 ROOT
