@<TRIPOS>MOLECULE
MOL
  175   173     1     0     0
SMALL
resp


@<TRIPOS>ATOM
      1 C1          0.7480    3.5600    5.8820 c3        1 MOL     -0.417837
      2 C2          0.0980    3.6120    4.5010 c         1 MOL      0.762237
      3 O1          0.9170    3.8200    3.6040 o         1 MOL     -0.544052
      4 H1          0.9910    2.5270    6.1300 hc        1 MOL      0.099584
      5 H2          1.6610    4.1560    5.8780 hc        1 MOL      0.099584
      6 H3          0.0560    3.9580    6.6250 hc        1 MOL      0.099584
      7 N1         -1.2330    3.4190    4.3180 n         1 MOL     -0.772564
      8 C3         -1.8850    3.3750    3.0000 c3        1 MOL      0.449785
      9 C4         -1.9640    4.7300    2.1970 c         1 MOL      0.412802
     10 O2         -2.0220    5.7880    2.8250 o         1 MOL     -0.557373
     11 C5         -3.2330    2.6370    3.0710 c3        1 MOL     -0.420808
     12 C6         -3.7190    2.5390    1.5720 c         1 MOL      0.738450
     13 O3         -3.1140    2.0770    0.6120 o         1 MOL     -0.675801
     14 O4         -4.7790    3.1910    1.3560 o         1 MOL     -0.675801
     15 H4         -1.8160    3.3780    5.1420 hn        1 MOL      0.350115
     16 H5         -1.2000    2.7910    2.3870 h1        1 MOL     -0.034511
     17 H6         -3.9930    3.1340    3.6720 hc        1 MOL      0.082865
     18 H7         -3.0040    1.6340    3.4540 hc        1 MOL      0.082865
     19 N2         -1.8850    4.6370    0.8800 n         1 MOL     -0.294788
     20 C7         -2.0180    5.7600   -0.1410 c3        1 MOL      0.070119
     21 C8         -2.7860    5.3650   -1.4190 c         1 MOL      0.592108
     22 O5         -2.7280    6.0970   -2.3570 o         1 MOL     -0.567640
     23 C9         -0.5600    6.2090   -0.3970 c3        1 MOL     -0.188001
     24 H8         -1.5450    3.7450    0.5650 hn        1 MOL      0.280464
     25 H9         -2.4690    6.5820    0.4280 h1        1 MOL      0.056755
     26 H10        -0.1220    6.6620    0.4850 hc        1 MOL      0.051112
     27 H11        -0.0190    5.3700   -0.8330 hc        1 MOL      0.051112
     28 H12        -0.5300    6.9800   -1.1720 hc        1 MOL      0.051112
     29 N3         -3.5700    4.2540   -1.4300 n         1 MOL     -0.504555
     30 C10        -4.3280    3.7360   -2.6560 c3        1 MOL      0.237751
     31 C11        -5.6480    3.0510   -2.3140 c         1 MOL      0.269837
     32 O6         -6.4080    2.7130   -3.2430 o         1 MOL     -0.561207
     33 C12        -3.4260    2.8410   -3.5170 c3        1 MOL     -0.219103
     34 C13        -3.0400    1.5520   -2.8460 c         1 MOL      0.840707
     35 O7         -3.8600    0.9010   -2.1420 o         1 MOL     -0.758577
     36 O8         -1.8150    1.1610   -2.8890 o         1 MOL     -0.758577
     37 H13        -3.5490    3.7020   -0.5950 hn        1 MOL      0.203939
     38 H14        -4.5050    4.6810   -3.1790 h1        1 MOL      0.046802
     39 H15        -2.5670    3.4460   -3.8100 hc        1 MOL      0.051674
     40 H16        -3.9490    2.5490   -4.4260 hc        1 MOL      0.051674
     41 N4         -5.9520    2.6310   -1.1020 n         1 MOL     -0.040923
     42 C14        -7.2740    2.0150   -0.8150 c3        1 MOL     -0.201756
     43 C15        -7.4250    0.5520   -1.0520 c         1 MOL      0.608133
     44 O9         -8.4740    0.0040   -0.7240 o         1 MOL     -0.620344
     45 H17        -5.3520    2.8920   -0.3370 hn        1 MOL      0.134523
     46 H18        -8.0590    2.5760   -1.3250 h1        1 MOL      0.094044
     47 H19        -7.5150    2.1200    0.2450 h1        1 MOL      0.094044
     48 N5         -6.3370   -0.1660   -1.4960 n         1 MOL     -0.318243
     49 C16        -6.4240   -1.5230   -1.9560 c3        1 MOL     -0.074784
     50 C17        -6.4610   -2.7070   -0.9770 c         1 MOL      0.481916
     51 O10        -6.5530   -3.8780   -1.4110 o         1 MOL     -0.509221
     52 C18        -5.3720   -1.6890   -3.0570 c3        1 MOL     -0.145220
     53 C19        -3.9610   -1.9380   -2.6940 c         1 MOL      0.494466
     54 N6         -3.0770   -2.0360   -3.6400 n         1 MOL     -0.564068
     55 O11        -3.5530   -1.9560   -1.5300 o         1 MOL     -0.421838
     56 H20        -5.4740    0.3120   -1.7170 hn        1 MOL      0.251180
     57 H21        -7.3480   -1.6690   -2.5110 h1        1 MOL      0.112487
     58 H22        -5.3770   -0.7790   -3.6580 hc        1 MOL      0.063164
     59 H23        -5.7240   -2.4550   -3.7440 hc        1 MOL      0.063164
     60 H24        -3.4410   -1.8960   -4.5740 hn        1 MOL      0.294361
     61 H25        -2.0800   -2.1280   -3.4760 hn        1 MOL      0.294361
     62 N7         -6.4130   -2.4550    0.3730 n         1 MOL     -0.353515
     63 C20        -6.4590   -3.5020    1.4250 c3        1 MOL     -0.042339
     64 C21        -5.1960   -4.3400    1.5640 c         1 MOL      0.522684
     65 O12        -5.3710   -5.3600    2.2770 o         1 MOL     -0.589011
     66 H26        -6.4490   -1.4800    0.6460 hn        1 MOL      0.260933
     67 H27        -7.3020   -4.1800    1.4340 h1        1 MOL      0.066001
     68 H28        -6.4790   -3.0200    2.4060 h1        1 MOL      0.066001
     69 N8         -4.0610   -3.9610    0.9760 n         1 MOL     -0.324548
     70 C22        -2.7960   -4.6530    1.1880 c3        1 MOL     -0.051458
     71 C23        -1.6710   -3.6560    1.2940 c         1 MOL      0.424431
     72 O13        -1.7890   -2.6070    0.6860 o         1 MOL     -0.389100
     73 C24        -2.5170   -5.6740    0.0620 c3        1 MOL      0.557197
     74 C25        -3.4040   -6.8600    0.0710 c3        1 MOL     -0.462782
     75 O14        -2.6450   -5.0490   -1.2300 oh        1 MOL     -0.608993
     76 H29        -4.1280   -3.2260    0.2870 hn        1 MOL      0.184020
     77 H30        -2.8090   -5.2500    2.1050 h1        1 MOL      0.055223
     78 H31        -1.5580   -6.1940    0.1370 h1        1 MOL     -0.054923
     79 H32        -2.2310   -4.1890   -1.2130 ho        1 MOL      0.337238
     80 H33        -4.4630   -6.6500    0.1460 hc        1 MOL      0.112502
     81 H34        -3.2200   -7.3200   -0.9000 hc        1 MOL      0.112502
     82 H35        -3.1850   -7.5210    0.9120 hc        1 MOL      0.112502
     83 N9         -0.5820   -4.0170    1.9180 n         1 MOL     -0.479309
     84 C26         0.6320   -3.1690    1.8770 c3        1 MOL      0.029080
     85 C27         1.2860   -3.4230    0.5300 c         1 MOL      0.407824
     86 O15         1.4340   -4.5750    0.0920 o         1 MOL     -0.555346
     87 C28         1.6900   -3.6000    2.9360 c3        1 MOL      0.319364
     88 C29         1.2940   -3.7400    4.4250 c3        1 MOL     -0.205157
     89 C30         2.9250   -2.6870    2.9110 c3        1 MOL     -0.215674
     90 C31         2.3980   -4.3430    5.4200 c3        1 MOL     -0.043818
     91 H36        -0.5130   -4.8970    2.3960 hn        1 MOL      0.280926
     92 H37         0.3250   -2.1410    2.0920 h1        1 MOL      0.011599
     93 H38         2.0250   -4.5560    2.5430 hc        1 MOL     -0.054177
     94 H39         0.3470   -4.2790    4.4300 hc        1 MOL      0.041654
     95 H40         1.1160   -2.7220    4.7800 hc        1 MOL      0.041654
     96 H41         3.7270   -3.2030    3.4430 hc        1 MOL      0.035746
     97 H42         3.3800   -2.5380    1.9260 hc        1 MOL      0.035746
     98 H43         2.6300   -1.7460    3.3820 hc        1 MOL      0.035746
     99 H44         2.8210   -5.3120    5.1700 hc        1 MOL      0.018657
    100 H45         3.2590   -3.6760    5.4180 hc        1 MOL      0.018657
    101 H46         1.9900   -4.4830    6.4230 hc        1 MOL      0.018657
    102 N10         1.6100   -2.3140   -0.1340 n         1 MOL     -0.113969
    103 C32         2.5300   -2.2730   -1.3090 c3        1 MOL      0.045869
    104 C33         3.9540   -1.7080   -1.0290 c         1 MOL      0.359245
    105 O16         4.1010   -1.0930    0.0230 o         1 MOL     -0.236967
    106 C34         1.8520   -1.4210   -2.3280 c3        1 MOL     -0.357205
    107 C35         0.4040   -1.8210   -2.6330 c         1 MOL      0.780700
    108 O17        -0.5170   -1.5700   -1.8300 o         1 MOL     -0.689462
    109 O18         0.1510   -2.3200   -3.7680 o         1 MOL     -0.689462
    110 H47         1.2290   -1.4600    0.2480 hn        1 MOL      0.122063
    111 H48         2.7210   -3.2850   -1.6740 h1        1 MOL      0.074185
    112 H49         2.4210   -1.2870   -3.2370 hc        1 MOL      0.084974
    113 H50         1.8170   -0.4100   -1.9260 hc        1 MOL      0.084974
    114 N11         4.9730   -1.8160   -1.9410 n         1 MOL     -0.645951
    115 C36         6.3630   -1.3530   -1.5940 c3        1 MOL      0.427117
    116 C37         6.5430    0.1730   -1.0480 c         1 MOL      0.279860
    117 O19         7.2910    0.3910   -0.1060 o         1 MOL     -0.480886
    118 C38         7.3100   -1.6370   -2.7560 c3        1 MOL     -0.268829
    119 C39         8.8340   -1.4790   -2.5290 ca        1 MOL      0.097667
    120 C40         9.4800   -2.4430   -1.6970 ca        1 MOL     -0.190440
    121 C41         9.5250   -0.3080   -2.8690 ca        1 MOL     -0.190440
    122 C42        10.8290   -2.3030   -1.3970 ca        1 MOL     -0.083608
    123 C43        10.8810   -0.1400   -2.4680 ca        1 MOL     -0.083608
    124 C44        11.5180   -1.1320   -1.8130 ca        1 MOL     -0.112528
    125 H51         4.7830   -2.3160   -2.7930 hn        1 MOL      0.352468
    126 H52         6.7080   -2.0130   -0.8000 h1        1 MOL      0.029794
    127 H53         6.9630   -1.1690   -3.6730 hc        1 MOL      0.067710
    128 H54         7.0710   -2.6960   -2.9060 hc        1 MOL      0.067710
    129 H55         8.9630   -3.3230   -1.3550 ha        1 MOL      0.129310
    130 H56         8.9650    0.5540   -3.2080 ha        1 MOL      0.129310
    131 H57        11.3790   -2.9170   -0.7090 ha        1 MOL      0.105024
    132 H58        11.4070    0.7770   -2.7130 ha        1 MOL      0.105024
    133 H59        12.5420   -1.0050   -1.4970 ha        1 MOL      0.094942
    134 N12         5.8960    1.2260   -1.6070 n         1 MOL      0.006135
    135 C45         6.1470    2.5380   -1.1490 c3        1 MOL      0.172958
    136 C46         5.5440    2.7630    0.2300 c         1 MOL      0.195090
    137 O20         6.0840    3.5490    1.0410 o         1 MOL     -0.507385
    138 C47         5.6910    3.4970   -2.2030 c3        1 MOL     -0.109506
    139 C48         5.4560    2.6480   -3.4170 c3        1 MOL      0.013570
    140 C49         5.1260    1.2530   -2.8040 c3        1 MOL     -0.205360
    141 H60         7.2290    2.6420   -1.0700 h1        1 MOL      0.039759
    142 H61         4.7650    3.9550   -1.8540 hc        1 MOL      0.043534
    143 H62         6.5240    4.1950   -2.3290 hc        1 MOL      0.043534
    144 H63         4.6260    3.0710   -3.9910 hc        1 MOL      0.021506
    145 H64         6.3030    2.5580   -4.0950 hc        1 MOL      0.021506
    146 H65         4.0620    1.1690   -2.5830 h1        1 MOL      0.091569
    147 H66         5.4680    0.5150   -3.5330 h1        1 MOL      0.091569
    148 N13         4.4770    2.0470    0.5860 n         1 MOL     -0.097551
    149 C50         3.7980    1.9940    1.9070 c3        1 MOL     -0.045675
    150 C51         4.6620    1.0900    2.8350 c         1 MOL      0.430695
    151 O21         4.6770    1.2880    4.0540 o         1 MOL     -0.576004
    152 C52         2.4590    1.3380    1.7190 c3        1 MOL     -0.076322
    153 C53         1.6280    2.1670    0.7260 c3        1 MOL      0.028270
    154 C54         0.3450    1.4380    0.4560 c         1 MOL      0.514282
    155 O22        -0.5140    2.0860   -0.2280 o         1 MOL     -0.625008
    156 O23         0.2130    0.2620    0.7550 o         1 MOL     -0.625008
    157 H67         4.0790    1.4820   -0.1540 hn        1 MOL      0.204583
    158 H68         3.7500    2.9470    2.4320 h1        1 MOL      0.110855
    159 H69         1.9620    1.2740    2.6880 hc        1 MOL      0.044824
    160 H70         2.6840    0.3920    1.2330 hc        1 MOL      0.044824
    161 H71         2.1240    2.2090   -0.2460 hc        1 MOL      0.000866
    162 H72         1.4180    3.1800    1.0870 hc        1 MOL      0.000866
    163 N14         5.3700    0.1080    2.3110 n         1 MOL      0.035666
    164 C55         6.3420   -0.6510    3.1740 c3        1 MOL     -0.227220
    165 H73         6.2850   -1.7140    2.9370 h1        1 MOL      0.082128
    166 H74         7.3530   -0.2900    2.9870 h1        1 MOL      0.082128
    167 H75         6.0900   -0.5000    4.2240 h1        1 MOL      0.082128
    168 H76         5.2510   -0.2020    1.3500 hn        1 MOL     -0.040313
    169 Ca1        -2.0900   -0.0630   -0.3620 Ca        1 MOL      1.651007
    170 O24        -4.1450   -0.4790    1.4850 oh        1 MOL     -0.843871
    171 H77        -5.0570   -0.4670    1.7860 ho        1 MOL      0.406742
    172 H78        -3.6430   -0.7730    2.2430 ho        1 MOL      0.406742
    173 O25        -1.7320   -0.3780    2.6790 oh        1 MOL     -0.843871
    174 H79        -1.6030   -0.1050    3.5890 ho        1 MOL      0.406742
    175 H80        -0.8500   -0.3670    2.2990 ho        1 MOL      0.406742
@<TRIPOS>BOND
     1    1    2 1   
     2    1    4 1   
     3    1    5 1   
     4    1    6 1   
     5    2    3 2   
     6    2    7 1   
     7    7    8 1   
     8    7   15 1   
     9    8    9 1   
    10    8   11 1   
    11    8   16 1   
    12    9   10 2   
    13    9   19 1   
    14   11   12 1   
    15   11   17 1   
    16   11   18 1   
    17   12   13 1   
    18   12   14 1   
    19   19   20 1   
    20   19   24 1   
    21   20   21 1   
    22   20   23 1   
    23   20   25 1   
    24   21   22 2   
    25   21   29 1   
    26   23   26 1   
    27   23   27 1   
    28   23   28 1   
    29   29   30 1   
    30   29   37 1   
    31   30   31 1   
    32   30   33 1   
    33   30   38 1   
    34   31   32 2   
    35   31   41 1   
    36   33   34 1   
    37   33   39 1   
    38   33   40 1   
    39   34   35 1   
    40   34   36 1   
    41   41   42 1   
    42   41   45 1   
    43   42   43 1   
    44   42   46 1   
    45   42   47 1   
    46   43   44 2   
    47   43   48 1   
    48   48   49 1   
    49   48   56 1   
    50   49   50 1   
    51   49   52 1   
    52   49   57 1   
    53   50   51 2   
    54   50   62 1   
    55   52   53 1   
    56   52   58 1   
    57   52   59 1   
    58   53   54 1   
    59   53   55 2   
    60   54   60 1   
    61   54   61 1   
    62   62   63 1   
    63   62   66 1   
    64   63   64 1   
    65   63   67 1   
    66   63   68 1   
    67   64   65 2   
    68   64   69 1   
    69   69   70 1   
    70   69   76 1   
    71   70   71 1   
    72   70   73 1   
    73   70   77 1   
    74   71   72 2   
    75   71   83 1   
    76   73   74 1   
    77   73   75 1   
    78   73   78 1   
    79   74   80 1   
    80   74   81 1   
    81   74   82 1   
    82   75   79 1   
    83   83   84 1   
    84   83   91 1   
    85   84   85 1   
    86   84   87 1   
    87   84   92 1   
    88   85   86 2   
    89   85  102 1   
    90   87   88 1   
    91   87   89 1   
    92   87   93 1   
    93   88   90 1   
    94   88   94 1   
    95   88   95 1   
    96   89   96 1   
    97   89   97 1   
    98   89   98 1   
    99   90   99 1   
   100   90  100 1   
   101   90  101 1   
   102  102  103 1   
   103  102  110 1   
   104  103  104 1   
   105  103  106 1   
   106  103  111 1   
   107  104  105 2   
   108  104  114 1   
   109  106  107 1   
   110  106  112 1   
   111  106  113 1   
   112  107  108 1   
   113  107  109 1   
   114  114  115 1   
   115  114  125 1   
   116  115  116 1   
   117  115  118 1   
   118  115  126 1   
   119  116  117 2   
   120  116  134 1   
   121  118  119 1   
   122  118  127 1   
   123  118  128 1   
   124  119  120 ar  
   125  119  121 ar  
   126  120  122 ar  
   127  120  129 1   
   128  121  123 ar  
   129  121  130 1   
   130  122  124 ar  
   131  122  131 1   
   132  123  124 ar  
   133  123  132 1   
   134  124  133 1   
   135  134  135 1   
   136  134  140 1   
   137  135  136 1   
   138  135  138 1   
   139  135  141 1   
   140  136  137 2   
   141  136  148 1   
   142  138  139 1   
   143  138  142 1   
   144  138  143 1   
   145  139  140 1   
   146  139  144 1   
   147  139  145 1   
   148  140  146 1   
   149  140  147 1   
   150  148  149 1   
   151  148  157 1   
   152  149  150 1   
   153  149  152 1   
   154  149  158 1   
   155  150  151 2   
   156  150  163 1   
   157  152  153 1   
   158  152  159 1   
   159  152  160 1   
   160  153  154 1   
   161  153  161 1   
   162  153  162 1   
   163  154  155 1   
   164  154  156 1   
   165  163  164 1   
   166  163  168 1   
   167  164  165 1   
   168  164  166 1   
   169  164  167 1   
   170  170  171 1   
   171  170  172 1   
   172  173  174 1   
   173  173  175 1   
@<TRIPOS>SUBSTRUCTURE
     1 MOL         1 TEMP              0 ****  ****    0 ROOT
