@<TRIPOS>MOLECULE
MOL
  179   176     1     0     0
SMALL
resp


@<TRIPOS>ATOM
      1 C1          0.8000    4.1380    4.4680 c3        1 MOL     -0.384935
      2 C2          0.3790    3.7020    3.0670 c         1 MOL      0.544056
      3 O1          1.1860    3.6800    2.1250 o         1 MOL     -0.551931
      4 H1          0.4410    3.4120    5.1970 hc        1 MOL      0.101013
      5 H2          1.8870    4.1960    4.5190 hc        1 MOL      0.101013
      6 H3          0.3720    5.1160    4.6880 hc        1 MOL      0.101013
      7 N1         -0.8290    3.1930    2.9750 n         1 MOL     -0.539036
      8 C3         -1.5630    2.6570    1.8660 c3        1 MOL     -0.013047
      9 C4         -2.6340    3.6500    1.3110 c         1 MOL      0.623775
     10 O2         -3.7480    3.6070    1.7460 o         1 MOL     -0.497231
     11 C5         -2.2670    1.4450    2.3890 c3        1 MOL     -0.202595
     12 C6         -3.1320    0.6810    1.3310 c         1 MOL      0.707985
     13 O3         -3.9840   -0.0950    1.8160 o         1 MOL     -0.619691
     14 O4         -2.8940    0.9820    0.0980 o         1 MOL     -0.619691
     15 H4         -1.3100    3.1830    3.8610 hn        1 MOL      0.342200
     16 H5         -0.9290    2.3690    1.0270 h1        1 MOL      0.085683
     17 H6         -2.8760    1.7300    3.2470 hc        1 MOL      0.049176
     18 H7         -1.5090    0.7970    2.8300 hc        1 MOL      0.049176
     19 N2         -2.1400    4.6160    0.5050 n         1 MOL     -0.598040
     20 C7         -3.0180    5.7090   -0.0490 c3        1 MOL      0.062331
     21 C8         -3.9530    5.2430   -1.1440 c         1 MOL      0.488496
     22 O5         -4.9040    5.8910   -1.4140 o         1 MOL     -0.555613
     23 C9         -2.2890    6.9840   -0.4690 c3        1 MOL     -0.012749
     24 C10        -1.3800    7.5370    0.6510 c3        1 MOL     -0.006367
     25 C11        -0.8960    8.9530    0.2880 c3        1 MOL      0.037957
     26 C12        -0.3750    9.7520    1.5590 c3        1 MOL     -0.021787
     27 N3          0.7900    9.1640    2.2570 n4        1 MOL     -0.346845
     28 H8         -1.1810    4.5080    0.2240 hn        1 MOL      0.401828
     29 H9         -3.7060    5.9600    0.7600 h1        1 MOL      0.080770
     30 H10        -2.9990    7.7300   -0.8160 hc        1 MOL      0.029862
     31 H11        -1.6650    6.6870   -1.3120 hc        1 MOL      0.029862
     32 H12        -0.5500    6.8530    0.7780 hc        1 MOL      0.002053
     33 H13        -1.9600    7.5360    1.5780 hc        1 MOL      0.002053
     34 H14        -1.6210    9.5890   -0.2170 hc        1 MOL      0.035866
     35 H15        -0.0230    8.9070   -0.3680 hc        1 MOL      0.035866
     36 H16        -1.2140    9.7940    2.2670 hx        1 MOL      0.089635
     37 H17        -0.1060   10.7460    1.2190 hx        1 MOL      0.089635
     38 H18         0.5690    8.2420    2.6170 hn        1 MOL      0.331859
     39 H19         1.5320    9.0300    1.5870 hn        1 MOL      0.331859
     40 H20         1.0170    9.7170    3.0670 hn        1 MOL      0.331859
     41 N4         -3.7110    4.0870   -1.7350 n         1 MOL     -0.257906
     42 C13        -4.6550    3.5110   -2.6690 c3        1 MOL      0.061142
     43 C14        -5.8040    2.6930   -2.0020 c         1 MOL      0.407351
     44 O6         -6.8590    2.6500   -2.6250 o         1 MOL     -0.540491
     45 C15        -3.8330    2.7050   -3.6900 c3        1 MOL     -0.407742
     46 C16        -2.9010    1.5980   -3.2310 c         1 MOL      0.790472
     47 O7         -1.7330    1.8360   -2.9130 o         1 MOL     -0.716492
     48 O8         -3.3520    0.4200   -3.1900 o         1 MOL     -0.716492
     49 H21        -2.9310    3.5280   -1.4110 hn        1 MOL      0.144039
     50 H22        -5.0840    4.3330   -3.2400 h1        1 MOL      0.113183
     51 H23        -3.3360    3.4250   -4.3460 hc        1 MOL      0.099259
     52 H24        -4.6270    2.3210   -4.3380 hc        1 MOL      0.099259
     53 N5         -5.5810    2.2410   -0.8070 n         1 MOL      0.056967
     54 C17        -6.6890    1.8040    0.0230 c3        1 MOL     -0.397814
     55 C18        -6.9590    0.2560    0.0690 c         1 MOL      0.553244
     56 O9         -7.8980   -0.2550    0.6770 o         1 MOL     -0.546283
     57 H25        -4.7200    2.5030   -0.3570 hn        1 MOL      0.081778
     58 H26        -7.6190    2.3110   -0.2380 h1        1 MOL      0.161795
     59 H27        -6.5110    2.0480    1.0710 h1        1 MOL      0.161795
     60 N6         -6.0350   -0.5660   -0.5680 n         1 MOL     -0.228728
     61 C19        -6.3200   -1.9510   -0.7970 c3        1 MOL     -0.134938
     62 C20        -6.0500   -2.8680    0.3520 c         1 MOL      0.381570
     63 O10        -6.3190   -4.0280    0.2690 o         1 MOL     -0.504224
     64 C21        -5.6890   -2.4230   -2.1470 c3        1 MOL      0.059682
     65 C22        -4.1650   -2.4400   -2.1990 c         1 MOL      0.639941
     66 N7         -3.5830   -3.0360   -3.2380 n         1 MOL     -0.744901
     67 O11        -3.4110   -1.8760   -1.4050 o         1 MOL     -0.604788
     68 H28        -5.1830   -0.0700   -0.7800 hn        1 MOL      0.119656
     69 H29        -7.3940   -2.1140   -0.8490 h1        1 MOL      0.139473
     70 H30        -5.9550   -1.7040   -2.9310 hc        1 MOL      0.013296
     71 H31        -6.1260   -3.3700   -2.4630 hc        1 MOL      0.013296
     72 H32        -4.0990   -3.5920   -3.9020 hn        1 MOL      0.345332
     73 H33        -2.5830   -3.1200   -3.1400 hn        1 MOL      0.345332
     74 N8         -5.3580   -2.4150    1.4000 n         1 MOL     -0.081951
     75 C23        -5.1580   -3.2150    2.6870 c3        1 MOL     -0.211481
     76 C24        -3.6770   -3.7790    2.7740 c         1 MOL      0.637516
     77 O12        -3.5320   -4.8000    3.4010 o         1 MOL     -0.547304
     78 H34        -5.0200   -1.4660    1.3310 hn        1 MOL      0.177338
     79 H35        -5.8520   -4.0590    2.6610 h1        1 MOL      0.096481
     80 H36        -5.4000   -2.6430    3.5800 h1        1 MOL      0.096481
     81 N9         -2.7950   -3.1010    2.0540 n         1 MOL     -0.513500
     82 C25        -1.4430   -3.5640    1.8230 c3        1 MOL      0.131244
     83 C26        -0.4520   -2.4650    1.5560 c         1 MOL      0.603153
     84 O13        -0.8240   -1.5430    0.8000 o         1 MOL     -0.661228
     85 C27        -1.4340   -4.3740    0.5220 c3        1 MOL     -0.027217
     86 C28        -1.9390   -5.7760    0.5510 ca        1 MOL      0.409556
     87 C29        -3.1150   -6.1080   -0.2040 ca        1 MOL     -0.449601
     88 C30        -1.1980   -6.7870    1.1310 ca        1 MOL     -0.449601
     89 C31        -3.6310   -7.3950   -0.2030 ca        1 MOL     -0.017038
     90 C32        -1.5690   -8.1200    0.9920 ca        1 MOL     -0.017038
     91 C33        -2.7960   -8.3940    0.3250 ca        1 MOL      0.106436
     92 O14        -3.2740   -9.7070    0.3880 oh        1 MOL     -0.457650
     93 H37        -3.0700   -2.2280    1.6120 hn        1 MOL      0.251515
     94 H38        -1.0890   -4.1620    2.6660 h1        1 MOL      0.016657
     95 H39        -0.3970   -4.5370    0.2090 hc        1 MOL     -0.010948
     96 H40        -1.8670   -3.7360   -0.2480 hc        1 MOL     -0.010948
     97 H41        -3.8220   -5.3960   -0.5890 ha        1 MOL      0.181722
     98 H42        -0.3090   -6.5100    1.6860 ha        1 MOL      0.181722
     99 H43        -4.5660   -7.6480   -0.6840 ha        1 MOL      0.110634
    100 H44        -1.0210   -8.9420    1.4140 ha        1 MOL      0.110634
    101 H45        -2.6740  -10.3450    0.7880 ho        1 MOL      0.340422
    102 N10         0.8130   -2.6720    1.9150 n         1 MOL     -0.464942
    103 C34         1.9640   -1.8470    1.3880 c3        1 MOL     -0.025927
    104 C35         3.0550   -2.7950    0.8610 c         1 MOL      0.639008
    105 O15         3.4440   -3.7940    1.5060 o         1 MOL     -0.574535
    106 C36         2.5270   -0.8970    2.3910 c3        1 MOL     -0.122600
    107 C37         2.8620   -1.5530    3.7330 c3        1 MOL     -0.006472
    108 C38         1.6400    0.2520    2.6670 c3        1 MOL     -0.321119
    109 C39         3.2290   -0.6260    4.9110 c3        1 MOL     -0.130737
    110 H46         1.0060   -3.5260    2.4100 hn        1 MOL      0.283486
    111 H47         1.5490   -1.2060    0.6170 h1        1 MOL      0.103941
    112 H48         3.4620   -0.5070    2.0030 hc        1 MOL      0.046178
    113 H49         3.7560   -2.1530    3.5790 hc        1 MOL      0.033765
    114 H50         2.0930   -2.2500    4.0920 hc        1 MOL      0.033765
    115 H51         0.8650   -0.0540    3.3810 hc        1 MOL      0.142916
    116 H52         2.1480    1.1130    3.1020 hc        1 MOL      0.142916
    117 H53         1.0850    0.6280    1.8150 hc        1 MOL      0.142916
    118 H54         4.0610    0.0210    4.6350 hc        1 MOL      0.032578
    119 H55         2.3270   -0.0850    5.2070 hc        1 MOL      0.032578
    120 H56         3.6050   -1.1780    5.7700 hc        1 MOL      0.032578
    121 N11         3.6100   -2.4980   -0.3070 n         1 MOL     -0.429288
    122 C40         4.9060   -3.0870   -0.8170 c3        1 MOL     -0.006477
    123 C41         6.0510   -2.4680   -0.0110 c         1 MOL      0.443074
    124 O16         5.8600   -1.5530    0.8330 o         1 MOL     -0.342709
    125 C42         5.0610   -2.7720   -2.3460 c3        1 MOL     -0.106805
    126 O17         5.1250   -1.3980   -2.6730 oh        1 MOL     -0.403738
    127 H57         3.2470   -1.7240   -0.8360 hn        1 MOL      0.239290
    128 H58         4.8540   -4.1510   -0.5940 h1        1 MOL      0.116728
    129 H59         4.2380   -3.2220   -2.9120 h1        1 MOL      0.091260
    130 H60         5.8500   -3.3910   -2.7880 h1        1 MOL      0.091260
    131 H61         5.1930   -1.2720   -3.6200 ho        1 MOL      0.376238
    132 N12         7.3240   -2.9130   -0.3090 n         1 MOL     -0.427957
    133 C43         8.5480   -2.1740    0.1100 c3        1 MOL      0.067706
    134 C44         8.6800   -0.8040   -0.5960 c         1 MOL      0.441267
    135 O18         9.1310    0.1460    0.0060 o         1 MOL     -0.502178
    136 C45         9.7370   -3.0910   -0.1130 c3        1 MOL     -0.114311
    137 H62         7.4390   -3.7490   -0.8530 hn        1 MOL      0.267191
    138 H63         8.4630   -2.0860    1.1930 h1        1 MOL      0.098909
    139 H64         9.6860   -4.0740    0.3470 hc        1 MOL      0.045655
    140 H65         9.8930   -3.2090   -1.1870 hc        1 MOL      0.045655
    141 H66        10.6670   -2.6780    0.2920 hc        1 MOL      0.045655
    142 N13         8.2660   -0.6780   -1.8490 n         1 MOL     -0.243920
    143 C46         8.1790    0.5180   -2.6060 c3        1 MOL      0.094224
    144 C47         7.1190    1.5450   -2.1110 c         1 MOL      0.355984
    145 O19         7.3330    2.7730   -2.2870 o         1 MOL     -0.529208
    146 C48         7.9010    0.0880   -4.0460 c3        1 MOL     -0.331224
    147 H67         7.8560   -1.4600   -2.3460 hn        1 MOL      0.207496
    148 H68         9.1550    0.9900   -2.4770 h1        1 MOL      0.087836
    149 H69         8.5280   -0.7900   -4.2140 hc        1 MOL      0.096741
    150 H70         6.8430   -0.0930   -4.2400 hc        1 MOL      0.096741
    151 H71         8.1730    0.8510   -4.7690 hc        1 MOL      0.096741
    152 N14         6.0680    1.1130   -1.4580 n         1 MOL      0.035105
    153 C49         5.1680    2.0320   -0.6560 c3        1 MOL     -0.154864
    154 C50         5.7910    2.4420    0.6990 c         1 MOL      0.428454
    155 O20         5.4960    3.5190    1.2500 o         1 MOL     -0.550866
    156 C51         3.8170    1.3500   -0.4060 c3        1 MOL      0.215319
    157 C52         2.7980    1.4930   -1.5950 c3        1 MOL     -0.255650
    158 C53         1.5670    0.7040   -1.3430 c         1 MOL      1.039953
    159 O21         1.3930   -0.4910   -1.6680 o         1 MOL     -0.879362
    160 O22         0.5530    1.3200   -0.9360 o         1 MOL     -0.879362
    161 H72         5.9850    0.1140   -1.3330 hn        1 MOL     -0.157387
    162 H73         4.9140    2.9420   -1.1970 h1        1 MOL      0.111310
    163 H74         3.4370    1.7660    0.5240 hc        1 MOL      0.023861
    164 H75         4.0800    0.3040   -0.2490 hc        1 MOL      0.023861
    165 H76         3.2890    1.1840   -2.5220 hc        1 MOL      0.033930
    166 H77         2.5640    2.5480   -1.6610 hc        1 MOL      0.033930
    167 N15         6.5840    1.5940    1.3630 n         1 MOL     -0.019709
    168 C54         7.1640    1.8270    2.6660 c3        1 MOL     -0.278439
    169 H78         7.1760    0.8940    3.2290 h1        1 MOL      0.111075
    170 H79         8.1850    2.1930    2.5500 h1        1 MOL      0.111075
    171 H80         6.5710    2.5680    3.2020 h1        1 MOL      0.111075
    172 H81         6.5800    0.6800    0.9360 hn        1 MOL      0.076253
    173 Ca1        -1.3380   -0.3590   -1.6650 Ca        1 MOL      1.775988
    174 O23        -0.6650   -2.8000   -2.3290 oh        1 MOL     -0.894495
    175 H82        -0.2360   -2.3890   -3.0810 ho        1 MOL      0.436229
    176 H83         0.0470   -3.2630   -1.8820 ho        1 MOL      0.436229
    177 O24        -0.5830   -0.7640   -4.1450 oh        1 MOL     -0.894495
    178 H84         0.0890   -0.2870   -4.6230 ho        1 MOL      0.436229
    179 H85        -0.9230   -1.4050   -4.7770 ho        1 MOL      0.436229
@<TRIPOS>BOND
     1    1    2 1   
     2    1    4 1   
     3    1    5 1   
     4    1    6 1   
     5    2    3 2   
     6    2    7 1   
     7    7    8 1   
     8    7   15 1   
     9    8    9 1   
    10    8   11 1   
    11    8   16 1   
    12    9   10 2   
    13    9   19 1   
    14   11   12 1   
    15   11   17 1   
    16   11   18 1   
    17   12   13 1   
    18   12   14 1   
    19   19   20 1   
    20   19   28 1   
    21   20   21 1   
    22   20   23 1   
    23   20   29 1   
    24   21   22 2   
    25   21   41 1   
    26   23   24 1   
    27   23   30 1   
    28   23   31 1   
    29   24   25 1   
    30   24   32 1   
    31   24   33 1   
    32   25   26 1   
    33   25   34 1   
    34   25   35 1   
    35   26   27 1   
    36   26   36 1   
    37   26   37 1   
    38   27   38 1   
    39   27   39 1   
    40   27   40 1   
    41   41   42 1   
    42   41   49 1   
    43   42   43 1   
    44   42   45 1   
    45   42   50 1   
    46   43   44 2   
    47   43   53 1   
    48   45   46 1   
    49   45   51 1   
    50   45   52 1   
    51   46   47 1   
    52   46   48 1   
    53   53   54 1   
    54   53   57 1   
    55   54   55 1   
    56   54   58 1   
    57   54   59 1   
    58   55   56 2   
    59   55   60 1   
    60   60   61 1   
    61   60   68 1   
    62   61   62 1   
    63   61   64 1   
    64   61   69 1   
    65   62   63 2   
    66   62   74 1   
    67   64   65 1   
    68   64   70 1   
    69   64   71 1   
    70   65   66 1   
    71   65   67 2   
    72   66   72 1   
    73   66   73 1   
    74   74   75 1   
    75   74   78 1   
    76   75   76 1   
    77   75   79 1   
    78   75   80 1   
    79   76   77 2   
    80   76   81 1   
    81   81   82 1   
    82   81   93 1   
    83   82   83 1   
    84   82   85 1   
    85   82   94 1   
    86   83   84 2   
    87   83  102 1   
    88   85   86 1   
    89   85   95 1   
    90   85   96 1   
    91   86   87 ar  
    92   86   88 ar  
    93   87   89 ar  
    94   87   97 1   
    95   88   90 ar  
    96   88   98 1   
    97   89   91 ar  
    98   89   99 1   
    99   90   91 ar  
   100   90  100 1   
   101   91   92 1   
   102   92  101 1   
   103  102  103 1   
   104  102  110 1   
   105  103  104 1   
   106  103  106 1   
   107  103  111 1   
   108  104  105 2   
   109  104  121 1   
   110  106  107 1   
   111  106  108 1   
   112  106  112 1   
   113  107  109 1   
   114  107  113 1   
   115  107  114 1   
   116  108  115 1   
   117  108  116 1   
   118  108  117 1   
   119  109  118 1   
   120  109  119 1   
   121  109  120 1   
   122  121  122 1   
   123  121  127 1   
   124  122  123 1   
   125  122  125 1   
   126  122  128 1   
   127  123  124 2   
   128  123  132 1   
   129  125  126 1   
   130  125  129 1   
   131  125  130 1   
   132  126  131 1   
   133  132  133 1   
   134  132  137 1   
   135  133  134 1   
   136  133  136 1   
   137  133  138 1   
   138  134  135 2   
   139  134  142 1   
   140  136  139 1   
   141  136  140 1   
   142  136  141 1   
   143  142  143 1   
   144  142  147 1   
   145  143  144 1   
   146  143  146 1   
   147  143  148 1   
   148  144  145 2   
   149  144  152 1   
   150  146  149 1   
   151  146  150 1   
   152  146  151 1   
   153  152  153 1   
   154  152  161 1   
   155  153  154 1   
   156  153  156 1   
   157  153  162 1   
   158  154  155 2   
   159  154  167 1   
   160  156  157 1   
   161  156  163 1   
   162  156  164 1   
   163  157  158 1   
   164  157  165 1   
   165  157  166 1   
   166  158  159 1   
   167  158  160 1   
   168  167  168 1   
   169  167  172 1   
   170  168  169 1   
   171  168  170 1   
   172  168  171 1   
   173  174  175 1   
   174  174  176 1   
   175  177  178 1   
   176  177  179 1   
@<TRIPOS>SUBSTRUCTURE
     1 MOL         1 TEMP              0 ****  ****    0 ROOT
