@<TRIPOS>MOLECULE
MOL
  179   176     1     0     0
SMALL
resp


@<TRIPOS>ATOM
      1 C1          1.3250    4.5720    4.5300 c3        1 MOL     -0.256010
      2 C2          0.8300    3.9170    3.2380 c         1 MOL      0.714774
      3 O1          1.6210    3.9560    2.3230 o         1 MOL     -0.547494
      4 H1          1.3640    5.6540    4.3970 hc        1 MOL      0.059194
      5 H2          0.6420    4.3310    5.3450 hc        1 MOL      0.059194
      6 H3          2.3220    4.2000    4.7680 hc        1 MOL      0.059194
      7 N1         -0.4000    3.3600    3.1420 n         1 MOL     -0.792002
      8 C3         -1.0430    2.8890    1.9460 c3        1 MOL      0.211972
      9 C4         -1.7530    4.0790    1.1970 c         1 MOL      0.618628
     10 O2         -2.9920    4.2230    1.2210 o         1 MOL     -0.562894
     11 C5         -2.0260    1.6980    2.3400 c3        1 MOL     -0.229898
     12 C6         -2.7480    0.9780    1.1800 c         1 MOL      0.834532
     13 O3         -2.3500    1.2500    0.0400 o         1 MOL     -0.780739
     14 O4         -3.4780   -0.0640    1.3460 o         1 MOL     -0.780739
     15 H4         -0.8670    3.3280    4.0400 hn        1 MOL      0.387070
     16 H5         -0.3560    2.5440    1.1690 h1        1 MOL      0.030411
     17 H6         -2.7740    2.1500    2.9940 hc        1 MOL      0.058383
     18 H7         -1.5690    0.9530    2.9820 hc        1 MOL      0.058383
     19 N2         -0.9810    4.8800    0.4760 n         1 MOL     -0.531705
     20 C7         -1.4630    6.1550   -0.1890 c3        1 MOL     -0.000797
     21 C8         -2.4020    5.9930   -1.3430 c         1 MOL      0.585868
     22 O5         -2.8770    7.0590   -1.8160 o         1 MOL     -0.582266
     23 C9         -0.2000    7.0830   -0.4160 c3        1 MOL     -0.314428
     24 C10         0.3860    7.7160    0.8610 c3        1 MOL      0.206193
     25 C11         1.4380    8.6850    0.6350 c3        1 MOL     -0.018961
     26 C12         2.2540    9.0000    1.9370 c3        1 MOL     -0.091654
     27 N3          1.3840    9.5480    3.0580 n4        1 MOL     -0.323241
     28 H8          0.0110    4.7070    0.4200 hn        1 MOL      0.333837
     29 H9         -2.0610    6.6450    0.5750 h1        1 MOL      0.086050
     30 H10        -0.4730    7.9000   -1.0890 hc        1 MOL      0.125798
     31 H11         0.5930    6.5060   -0.8990 hc        1 MOL      0.125798
     32 H12         0.8100    6.9000    1.4610 hc        1 MOL     -0.032938
     33 H13        -0.2730    8.3160    1.4720 hc        1 MOL     -0.032938
     34 H14         1.1670    9.5990    0.1090 hc        1 MOL      0.039630
     35 H15         2.1180    8.1450   -0.0280 hc        1 MOL      0.039630
     36 H16         3.0470    9.7180    1.7200 hx        1 MOL      0.130729
     37 H17         2.7720    8.0940    2.2690 hx        1 MOL      0.130729
     38 H18         2.0120    9.9680    3.7250 hn        1 MOL      0.315787
     39 H19         0.8640   10.4030    2.9600 hn        1 MOL      0.315787
     40 H20         0.7930    8.8830    3.5540 hn        1 MOL      0.315787
     41 N4         -2.7890    4.7830   -1.6290 n         1 MOL     -0.347755
     42 C13        -3.7900    4.3980   -2.5980 c3        1 MOL      0.135024
     43 C14        -5.0990    3.7480   -1.9860 c         1 MOL      0.351770
     44 O6         -6.2230    3.9960   -2.4950 o         1 MOL     -0.529236
     45 C15        -3.3640    3.5080   -3.7510 c3        1 MOL     -0.270655
     46 C16        -2.6800    2.2740   -3.3380 c         1 MOL      0.728416
     47 O7         -1.4680    2.2550   -3.0070 o         1 MOL     -0.723020
     48 O8         -3.3740    1.2150   -3.2760 o         1 MOL     -0.723020
     49 H21        -2.4170    4.0600   -1.0230 hn        1 MOL      0.241533
     50 H22        -4.1170    5.3220   -3.0890 h1        1 MOL      0.079809
     51 H23        -2.7320    4.1310   -4.3760 hc        1 MOL      0.075736
     52 H24        -4.1950    3.1670   -4.3660 hc        1 MOL      0.075736
     53 N5         -4.9390    3.1030   -0.8310 n         1 MOL      0.021806
     54 C17        -5.8710    2.8120    0.2190 c3        1 MOL     -0.243939
     55 C18        -6.3240    1.3200    0.3410 c         1 MOL      0.503722
     56 O9         -7.1310    1.0170    1.2590 o         1 MOL     -0.554367
     57 H25        -3.9950    2.7900   -0.6560 hn        1 MOL      0.028577
     58 H26        -6.7350    3.4640    0.0700 h1        1 MOL      0.121513
     59 H27        -5.4750    3.0140    1.2100 h1        1 MOL      0.121513
     60 N6         -5.7890    0.4460   -0.5130 n         1 MOL     -0.216051
     61 C19        -6.4600   -0.7880   -0.8950 c3        1 MOL     -0.050919
     62 C20        -6.4590   -1.9430    0.1270 c         1 MOL      0.295471
     63 O10        -7.1720   -2.9570   -0.1020 o         1 MOL     -0.507113
     64 C21        -5.9250   -1.1570   -2.3350 c3        1 MOL     -0.168291
     65 C22        -4.5950   -1.9350   -2.3280 c         1 MOL      0.727380
     66 N7         -4.6360   -3.2060   -2.7210 n         1 MOL     -0.852407
     67 O11        -3.5070   -1.4570   -1.9800 o         1 MOL     -0.698350
     68 H28        -5.0290    0.7340   -1.1090 hn        1 MOL      0.199963
     69 H29        -7.5130   -0.6070   -1.0850 h1        1 MOL      0.113688
     70 H30        -5.7820   -0.2670   -2.9450 hc        1 MOL      0.081094
     71 H31        -6.6290   -1.8130   -2.8400 hc        1 MOL      0.081094
     72 H32        -5.5150   -3.7050   -2.8120 hn        1 MOL      0.395633
     73 H33        -3.7480   -3.6840   -2.7410 hn        1 MOL      0.395633
     74 N8         -5.6990   -1.7900    1.2020 n         1 MOL      0.023919
     75 C23        -5.5790   -2.6590    2.3280 c3        1 MOL     -0.407521
     76 C24        -4.2310   -3.2620    2.5820 c         1 MOL      0.692445
     77 O12        -4.0910   -3.9440    3.5790 o         1 MOL     -0.576705
     78 H34        -5.1830   -0.9250    1.2790 hn        1 MOL      0.222961
     79 H35        -6.2540   -3.4860    2.1310 h1        1 MOL      0.157806
     80 H36        -6.0240   -2.1540    3.1850 h1        1 MOL      0.157806
     81 N9         -3.2420   -2.9970    1.7170 n         1 MOL     -0.468701
     82 C25        -1.9790   -3.6370    1.5660 c3        1 MOL      0.081608
     83 C26        -0.8790   -2.7150    1.0350 c         1 MOL      0.619668
     84 O13        -1.0890   -1.8020    0.2960 o         1 MOL     -0.539673
     85 C27        -2.1990   -4.7740    0.5360 c3        1 MOL      0.168839
     86 C28        -3.4010   -5.7160    0.7400 ca        1 MOL     -0.128575
     87 C29        -4.6410   -5.3230    0.2670 ca        1 MOL     -0.083032
     88 C30        -3.2360   -6.9190    1.4460 ca        1 MOL     -0.083032
     89 C31        -5.7240   -6.1480    0.4280 ca        1 MOL     -0.247437
     90 C32        -4.3410   -7.7820    1.6680 ca        1 MOL     -0.247437
     91 C33        -5.5970   -7.3770    1.1580 ca        1 MOL      0.310678
     92 O14        -6.7220   -8.0520    1.2600 oh        1 MOL     -0.435131
     93 H37        -3.3680   -2.2070    1.1080 hn        1 MOL      0.308133
     94 H38        -1.6990   -4.0270    2.5390 h1        1 MOL      0.040351
     95 H39        -1.2750   -5.3450    0.4840 hc        1 MOL     -0.060261
     96 H40        -2.2440   -4.2740   -0.4360 hc        1 MOL     -0.060261
     97 H41        -4.6640   -4.4440   -0.3550 ha        1 MOL      0.103351
     98 H42        -2.2830   -7.3080    1.7780 ha        1 MOL      0.103351
     99 H43        -6.6890   -5.8900    0.0240 ha        1 MOL      0.127065
    100 H44        -4.2350   -8.8150    2.0060 ha        1 MOL      0.127065
    101 H45        -6.5700   -8.6740    1.9730 ho        1 MOL      0.348168
    102 N10         0.3420   -2.8780    1.6440 n         1 MOL     -0.497831
    103 C34         1.5880   -2.2730    1.2390 c3        1 MOL     -0.045822
    104 C35         2.6340   -3.3260    0.8040 c         1 MOL      0.586102
    105 O15         3.1350   -4.1050    1.5440 o         1 MOL     -0.522483
    106 C36         2.1250   -1.2700    2.2860 c3        1 MOL      0.013215
    107 C37         2.5620   -1.8470    3.6440 c3        1 MOL      0.250348
    108 C38         0.9620   -0.1720    2.4560 c3        1 MOL     -0.159777
    109 C39         3.1090   -0.8890    4.7200 c3        1 MOL     -0.221724
    110 H46         0.4710   -3.6580    2.2640 hn        1 MOL      0.280637
    111 H47         1.3840   -1.6750    0.3380 h1        1 MOL      0.015442
    112 H48         2.9640   -0.7230    1.8610 hc        1 MOL     -0.065958
    113 H49         3.3190   -2.6180    3.5790 hc        1 MOL     -0.043344
    114 H50         1.6780   -2.3290    4.0720 hc        1 MOL     -0.043344
    115 H51         0.1250   -0.4370    3.1020 hc        1 MOL      0.075665
    116 H52         1.4700    0.6740    2.9190 hc        1 MOL      0.075665
    117 H53         0.6160    0.1300    1.4650 hc        1 MOL      0.075665
    118 H54         3.8800   -0.3160    4.2110 hc        1 MOL      0.044388
    119 H55         2.3210   -0.2640    5.1370 hc        1 MOL      0.044388
    120 H56         3.5690   -1.4780    5.5130 hc        1 MOL      0.044388
    121 N11         3.0360   -3.2370   -0.4830 n         1 MOL     -0.433081
    122 C40         4.3270   -3.7780   -0.9600 c3        1 MOL     -0.043962
    123 C41         5.5440   -3.3030   -0.2230 c         1 MOL      0.541308
    124 O16         5.5060   -2.3360    0.4950 o         1 MOL     -0.419953
    125 C42         4.3470   -3.6770   -2.4970 c3        1 MOL      0.106698
    126 O17         4.9640   -2.4850   -2.9170 oh        1 MOL     -0.530399
    127 H57         2.5840   -2.5380   -1.0460 hn        1 MOL      0.254932
    128 H58         4.2710   -4.8250   -0.6530 h1        1 MOL      0.079250
    129 H59         3.3570   -3.8420   -2.9240 h1        1 MOL      0.040654
    130 H60         4.9040   -4.5360   -2.8780 h1        1 MOL      0.040654
    131 H61         5.3020   -2.6210   -3.8000 ho        1 MOL      0.398221
    132 N12         6.7140   -3.8670   -0.4280 n         1 MOL     -0.465444
    133 C43         8.0380   -3.5440    0.1350 c3        1 MOL      0.147814
    134 C44         8.5350   -2.2280   -0.4560 c         1 MOL      0.406751
    135 O18         9.2940   -1.4990    0.2120 o         1 MOL     -0.515203
    136 C45         9.0760   -4.6330   -0.2360 c3        1 MOL     -0.241466
    137 H62         6.7800   -4.7070   -0.9860 hn        1 MOL      0.259537
    138 H63         7.9150   -3.3820    1.2090 h1        1 MOL      0.090155
    139 H64         9.3810   -4.4860   -1.2740 hc        1 MOL      0.075835
    140 H65         9.8960   -4.6270    0.4850 hc        1 MOL      0.075835
    141 H66         8.5780   -5.5990   -0.2350 hc        1 MOL      0.075835
    142 N13         8.0150   -1.8380   -1.6080 n         1 MOL     -0.231535
    143 C46         8.3670   -0.5500   -2.1630 c3        1 MOL      0.035511
    144 C47         7.4930    0.5120   -1.5570 c         1 MOL      0.447566
    145 O19         8.0270    1.5820   -1.1320 o         1 MOL     -0.533450
    146 C48         8.1480   -0.6860   -3.7180 c3        1 MOL     -0.210724
    147 H67         7.5530   -2.5270   -2.1900 hn        1 MOL      0.202616
    148 H68         9.4130   -0.3220   -1.9560 h1        1 MOL      0.098382
    149 H69         8.3980    0.2170   -4.2900 hc        1 MOL      0.059172
    150 H70         8.5940   -1.5920   -4.1240 hc        1 MOL      0.059172
    151 H71         7.0920   -0.8590   -3.9340 hc        1 MOL      0.059172
    152 N14         6.2070    0.2940   -1.3710 n         1 MOL     -0.250667
    153 C49         5.3590    1.1310   -0.5140 c3        1 MOL     -0.068560
    154 C50         5.9290    1.2750    0.9160 c         1 MOL      0.440665
    155 O20         5.7790    2.3690    1.5170 o         1 MOL     -0.562719
    156 C51         3.8800    0.6720   -0.5630 c3        1 MOL     -0.053743
    157 C52         3.2000    0.7640   -1.9760 c3        1 MOL     -0.024041
    158 C53         1.7730    0.3860   -1.9470 c         1 MOL      0.752359
    159 O21         0.9310    1.2190   -1.4430 o         1 MOL     -0.743889
    160 O22         1.3700   -0.6250   -2.5620 o         1 MOL     -0.743889
    161 H72         5.7540   -0.5490   -1.6940 hn        1 MOL      0.151293
    162 H73         5.4700    2.1460   -0.8970 h1        1 MOL      0.102354
    163 H74         3.3200    1.2970    0.1340 hc        1 MOL      0.079637
    164 H75         3.8780   -0.3650   -0.2120 hc        1 MOL      0.079637
    165 H76         3.7380    0.1920   -2.7270 hc        1 MOL     -0.002285
    166 H77         3.3700    1.7770   -2.3530 hc        1 MOL     -0.002285
    167 N15         6.4980    0.2230    1.5070 n         1 MOL     -0.022680
    168 C54         7.1660    0.2300    2.7810 c3        1 MOL     -0.155035
    169 H78         7.2050    1.2500    3.1650 h1        1 MOL      0.069775
    170 H79         6.6190   -0.4000    3.4830 h1        1 MOL      0.069775
    171 H80         8.1800   -0.1520    2.6620 h1        1 MOL      0.069775
    172 H81         6.5160   -0.6640    1.0350 hn        1 MOL      0.097624
    173 Ca1        -1.2830   -0.1120   -1.8570 Ca        1 MOL      1.739341
    174 O23        -1.2250   -0.5560   -4.5320 oh        1 MOL     -0.713860
    175 H82        -2.1130   -0.8500   -4.7410 ho        1 MOL      0.364929
    176 H83        -0.7680   -0.6050   -5.3720 ho        1 MOL      0.364929
    177 O24        -0.6720   -2.7540   -2.5190 oh        1 MOL     -0.713860
    178 H84        -0.9900   -2.9670   -3.3950 ho        1 MOL      0.364929
    179 H85        -0.4820   -3.6080   -2.1150 ho        1 MOL      0.364929
@<TRIPOS>BOND
     1    1    2 1   
     2    1    4 1   
     3    1    5 1   
     4    1    6 1   
     5    2    3 2   
     6    2    7 1   
     7    7    8 1   
     8    7   15 1   
     9    8    9 1   
    10    8   11 1   
    11    8   16 1   
    12    9   10 2   
    13    9   19 1   
    14   11   12 1   
    15   11   17 1   
    16   11   18 1   
    17   12   13 1   
    18   12   14 1   
    19   19   20 1   
    20   19   28 1   
    21   20   21 1   
    22   20   23 1   
    23   20   29 1   
    24   21   22 2   
    25   21   41 1   
    26   23   24 1   
    27   23   30 1   
    28   23   31 1   
    29   24   25 1   
    30   24   32 1   
    31   24   33 1   
    32   25   26 1   
    33   25   34 1   
    34   25   35 1   
    35   26   27 1   
    36   26   36 1   
    37   26   37 1   
    38   27   38 1   
    39   27   39 1   
    40   27   40 1   
    41   41   42 1   
    42   41   49 1   
    43   42   43 1   
    44   42   45 1   
    45   42   50 1   
    46   43   44 2   
    47   43   53 1   
    48   45   46 1   
    49   45   51 1   
    50   45   52 1   
    51   46   47 1   
    52   46   48 1   
    53   53   54 1   
    54   53   57 1   
    55   54   55 1   
    56   54   58 1   
    57   54   59 1   
    58   55   56 2   
    59   55   60 1   
    60   60   61 1   
    61   60   68 1   
    62   61   62 1   
    63   61   64 1   
    64   61   69 1   
    65   62   63 2   
    66   62   74 1   
    67   64   65 1   
    68   64   70 1   
    69   64   71 1   
    70   65   66 1   
    71   65   67 2   
    72   66   72 1   
    73   66   73 1   
    74   74   75 1   
    75   74   78 1   
    76   75   76 1   
    77   75   79 1   
    78   75   80 1   
    79   76   77 2   
    80   76   81 1   
    81   81   82 1   
    82   81   93 1   
    83   82   83 1   
    84   82   85 1   
    85   82   94 1   
    86   83   84 2   
    87   83  102 1   
    88   85   86 1   
    89   85   95 1   
    90   85   96 1   
    91   86   87 ar  
    92   86   88 ar  
    93   87   89 ar  
    94   87   97 1   
    95   88   90 ar  
    96   88   98 1   
    97   89   91 ar  
    98   89   99 1   
    99   90   91 ar  
   100   90  100 1   
   101   91   92 1   
   102   92  101 1   
   103  102  103 1   
   104  102  110 1   
   105  103  104 1   
   106  103  106 1   
   107  103  111 1   
   108  104  105 2   
   109  104  121 1   
   110  106  107 1   
   111  106  108 1   
   112  106  112 1   
   113  107  109 1   
   114  107  113 1   
   115  107  114 1   
   116  108  115 1   
   117  108  116 1   
   118  108  117 1   
   119  109  118 1   
   120  109  119 1   
   121  109  120 1   
   122  121  122 1   
   123  121  127 1   
   124  122  123 1   
   125  122  125 1   
   126  122  128 1   
   127  123  124 2   
   128  123  132 1   
   129  125  126 1   
   130  125  129 1   
   131  125  130 1   
   132  126  131 1   
   133  132  133 1   
   134  132  137 1   
   135  133  134 1   
   136  133  136 1   
   137  133  138 1   
   138  134  135 2   
   139  134  142 1   
   140  136  139 1   
   141  136  140 1   
   142  136  141 1   
   143  142  143 1   
   144  142  147 1   
   145  143  144 1   
   146  143  146 1   
   147  143  148 1   
   148  144  145 2   
   149  144  152 1   
   150  146  149 1   
   151  146  150 1   
   152  146  151 1   
   153  152  153 1   
   154  152  161 1   
   155  153  154 1   
   156  153  156 1   
   157  153  162 1   
   158  154  155 2   
   159  154  167 1   
   160  156  157 1   
   161  156  163 1   
   162  156  164 1   
   163  157  158 1   
   164  157  165 1   
   165  157  166 1   
   166  158  159 1   
   167  158  160 1   
   168  167  168 1   
   169  167  172 1   
   170  168  169 1   
   171  168  170 1   
   172  168  171 1   
   173  174  175 1   
   174  174  176 1   
   175  177  178 1   
   176  177  179 1   
@<TRIPOS>SUBSTRUCTURE
     1 MOL         1 TEMP              0 ****  ****    0 ROOT
