@<TRIPOS>MOLECULE
MOL
  175   173     1     0     0
SMALL
resp


@<TRIPOS>ATOM
      1 C1          0.8310    3.9470    5.5740 c3        1 MOL     -0.469766
      2 C2          0.2480    3.9320    4.0920 c         1 MOL      0.684405
      3 O1          0.9100    3.9450    3.0590 o         1 MOL     -0.525247
      4 H1          0.0100    4.0220    6.2870 hc        1 MOL      0.122480
      5 H2          1.3850    3.0260    5.7560 hc        1 MOL      0.122480
      6 H3          1.4960    4.8020    5.6950 hc        1 MOL      0.122480
      7 N1         -1.1170    3.7720    4.0090 n         1 MOL     -0.672263
      8 C3         -1.7810    3.6240    2.7040 c3        1 MOL      0.216046
      9 C4         -1.5810    4.7640    1.7050 c         1 MOL      0.450631
     10 O2         -1.4950    5.9500    2.0040 o         1 MOL     -0.556034
     11 C5         -3.2450    3.1820    2.9800 c3        1 MOL     -0.114943
     12 C6         -3.9970    3.0320    1.7200 c         1 MOL      0.688464
     13 O3         -5.0260    3.6500    1.6530 o         1 MOL     -0.660695
     14 O4         -3.5750    2.3850    0.7290 o         1 MOL     -0.660695
     15 H4         -1.6470    3.7580    4.8660 hn        1 MOL      0.335641
     16 H5         -1.3420    2.7550    2.1950 h1        1 MOL      0.042290
     17 H6         -3.8140    3.8000    3.6800 hc        1 MOL     -0.004028
     18 H7         -3.2310    2.1780    3.4140 hc        1 MOL     -0.004028
     19 N2         -1.6830    4.4170    0.4070 n         1 MOL     -0.300655
     20 C7         -1.7330    5.3220   -0.7460 c3        1 MOL      0.338679
     21 C8         -2.6480    4.9580   -1.9680 c         1 MOL      0.387858
     22 O5         -2.5240    5.5660   -3.0220 o         1 MOL     -0.543737
     23 C9         -0.2400    5.6130   -1.1230 c3        1 MOL     -0.286538
     24 H8         -1.5590    3.4340    0.2110 hn        1 MOL      0.250892
     25 H9         -2.1390    6.2740   -0.4020 h1        1 MOL     -0.014726
     26 H10         0.0680    6.3560   -0.3870 hc        1 MOL      0.059502
     27 H11         0.3220    4.6860   -1.0450 hc        1 MOL      0.059502
     28 H12        -0.0410    5.9620   -2.1380 hc        1 MOL      0.059502
     29 N3         -3.5550    3.9560   -1.7960 n         1 MOL     -0.191160
     30 C10        -4.4910    3.5570   -2.8430 c3        1 MOL      0.067237
     31 C11        -5.7770    2.9640   -2.3140 c         1 MOL      0.357610
     32 O6         -6.8310    2.9090   -3.1010 o         1 MOL     -0.571586
     33 C12        -3.7890    2.6440   -3.8810 c3        1 MOL     -0.339273
     34 C13        -3.0460    1.4740   -3.2230 c         1 MOL      0.743205
     35 O7         -3.3680    0.9640   -2.1400 o         1 MOL     -0.687216
     36 O8         -2.1140    1.0740   -3.9630 o         1 MOL     -0.687216
     37 H13        -3.8000    3.6460   -0.8630 hn        1 MOL      0.081676
     38 H14        -4.8360    4.4040   -3.4340 h1        1 MOL      0.060360
     39 H15        -3.0240    3.2750   -4.3420 hc        1 MOL      0.104051
     40 H16        -4.5320    2.1140   -4.4760 hc        1 MOL      0.104051
     41 N4         -5.9180    2.5310   -1.0690 n         1 MOL     -0.142632
     42 C14        -7.1830    1.8990   -0.6700 c3        1 MOL     -0.074755
     43 C15        -7.4280    0.4070   -1.1210 c         1 MOL      0.386313
     44 O9         -8.6010   -0.0060   -1.1380 o         1 MOL     -0.556611
     45 H17        -5.1070    2.4770   -0.4660 hn        1 MOL      0.131116
     46 H18        -8.1070    2.4610   -0.7900 h1        1 MOL      0.082332
     47 H19        -7.1530    1.8850    0.4230 h1        1 MOL      0.082332
     48 N5         -6.3980   -0.3990   -1.4160 n         1 MOL     -0.137137
     49 C16        -6.5680   -1.7460   -2.0100 c3        1 MOL      0.031431
     50 C17        -6.8160   -2.8020   -0.9720 c         1 MOL      0.410292
     51 O10        -7.4210   -3.7860   -1.3300 o         1 MOL     -0.563952
     52 C18        -5.4050   -2.1000   -2.9230 c3        1 MOL      0.013438
     53 C19        -4.0140   -2.2420   -2.1940 c         1 MOL      0.488175
     54 N6         -2.9770   -2.4550   -2.8560 n         1 MOL     -0.623298
     55 O11        -3.8510   -1.9780   -0.9930 o         1 MOL     -0.583234
     56 H20        -5.5350    0.1060   -1.5490 hn        1 MOL      0.164605
     57 H21        -7.4430   -1.8670   -2.6510 h1        1 MOL      0.075882
     58 H22        -5.4160   -1.4250   -3.7740 hc        1 MOL      0.024614
     59 H23        -5.5810   -3.0430   -3.4460 hc        1 MOL      0.024614
     60 H24        -3.1030   -2.6180   -3.8410 hn        1 MOL      0.336911
     61 H25        -2.0520   -2.3060   -2.4760 hn        1 MOL      0.336911
     62 N7         -6.3490   -2.6590    0.2330 n         1 MOL     -0.127038
     63 C20        -6.4190   -3.6480    1.3190 c3        1 MOL     -0.040689
     64 C21        -5.1720   -4.3890    1.7990 c         1 MOL      0.386345
     65 O12        -5.2470   -5.3260    2.6190 o         1 MOL     -0.581140
     66 H26        -6.0160   -1.7390    0.4700 hn        1 MOL      0.080855
     67 H27        -7.1250   -4.4150    0.9980 h1        1 MOL      0.073044
     68 H28        -6.9700   -3.2120    2.1500 h1        1 MOL      0.073044
     69 N8         -4.0440   -4.1720    1.1800 n         1 MOL     -0.091067
     70 C22        -2.7220   -4.7870    1.4330 c3        1 MOL     -0.159297
     71 C23        -1.6160   -3.7110    1.5980 c         1 MOL      0.567471
     72 O13        -1.7150   -2.5750    1.0810 o         1 MOL     -0.702310
     73 C24        -2.2350   -5.5980    0.1980 c3        1 MOL      0.495457
     74 C25        -2.9670   -6.9620    0.0910 c3        1 MOL     -0.377871
     75 O14        -2.4470   -4.8770   -1.0190 oh        1 MOL     -0.669506
     76 H29        -4.0090   -3.4680    0.4600 hn        1 MOL      0.162513
     77 H30        -2.6560   -5.4380    2.3070 h1        1 MOL      0.100466
     78 H31        -1.1790   -5.8630    0.1440 h1        1 MOL     -0.003878
     79 H32        -1.9200   -4.0820   -1.1100 ho        1 MOL      0.447075
     80 H33        -4.0460   -6.8280    0.1470 hc        1 MOL      0.094567
     81 H34        -2.6670   -7.4960   -0.8020 hc        1 MOL      0.094567
     82 H35        -2.6450   -7.5840    0.9350 hc        1 MOL      0.094567
     83 N9         -0.4170   -4.0070    2.1540 n         1 MOL     -0.590467
     84 C26         0.6850   -3.1030    2.0550 c3        1 MOL      0.186997
     85 C27         1.3630   -3.2540    0.6470 c         1 MOL      0.472737
     86 O15         1.4760   -4.3900    0.1240 o         1 MOL     -0.588571
     87 C28         1.6110   -3.1800    3.3020 c3        1 MOL     -0.093554
     88 C29         1.0530   -2.0440    4.2060 c3        1 MOL      0.121521
     89 C30         3.1240   -2.8510    3.0390 c3        1 MOL     -0.134429
     90 C31         1.5560   -2.0240    5.6300 c3        1 MOL     -0.051734
     91 H36        -0.1630   -4.9350    2.4600 hn        1 MOL      0.282120
     92 H37         0.3760   -2.0600    2.0050 h1        1 MOL      0.209894
     93 H38         1.6090   -4.1580    3.7820 hc        1 MOL      0.052813
     94 H39        -0.0360   -2.1280    4.1970 hc        1 MOL     -0.047560
     95 H40         1.2760   -1.0490    3.8010 hc        1 MOL     -0.047560
     96 H41         3.2700   -1.7830    2.8630 hc        1 MOL      0.016287
     97 H42         3.6640   -3.1370    3.9310 hc        1 MOL      0.016287
     98 H43         3.5820   -3.3330    2.1760 hc        1 MOL      0.016287
     99 H44         2.6050   -1.7090    5.6780 hc        1 MOL      0.002312
    100 H45         0.9270   -1.3510    6.2010 hc        1 MOL      0.002312
    101 H46         1.4080   -3.0200    6.0350 hc        1 MOL      0.002312
    102 N10         1.7060   -2.1140   -0.0190 n         1 MOL     -0.049213
    103 C32         2.5120   -2.1010   -1.2350 c3        1 MOL     -0.025462
    104 C33         3.9250   -1.5540   -0.9970 c         1 MOL      0.429250
    105 O16         4.2710   -1.3250    0.1460 o         1 MOL     -0.366652
    106 C34         1.7220   -1.2630   -2.2280 c3        1 MOL     -0.168164
    107 C35         0.2710   -1.6990   -2.4480 c         1 MOL      0.676826
    108 O17        -0.6660   -1.5470   -1.6490 o         1 MOL     -0.665727
    109 O18         0.0570   -2.3170   -3.5130 o         1 MOL     -0.665727
    110 H47         1.3770   -1.2990    0.4720 hn        1 MOL     -0.019947
    111 H48         2.6270   -3.1070   -1.6210 h1        1 MOL      0.095728
    112 H49         2.2690   -1.2170   -3.1730 hc        1 MOL      0.051422
    113 H50         1.7340   -0.2020   -1.9790 hc        1 MOL      0.051422
    114 N11         4.8700   -1.4240   -1.9940 n         1 MOL     -0.588452
    115 C36         6.3460   -1.2610   -1.6940 c3        1 MOL      0.366377
    116 C37         6.7980    0.1360   -1.1140 c         1 MOL      0.221617
    117 O19         7.3850    0.2740   -0.0900 o         1 MOL     -0.437784
    118 C38         7.1650   -1.9260   -2.8140 c3        1 MOL     -0.191261
    119 C39         8.6750   -1.8310   -2.5500 ca        1 MOL     -0.010251
    120 C40         9.3300   -2.7560   -1.7530 ca        1 MOL     -0.077170
    121 C41         9.4700   -0.8100   -3.0810 ca        1 MOL     -0.077170
    122 C42        10.7350   -2.8070   -1.5760 ca        1 MOL     -0.163839
    123 C43        10.8870   -0.8270   -3.0000 ca        1 MOL     -0.163839
    124 C44        11.4930   -1.8190   -2.2090 ca        1 MOL     -0.054309
    125 H51         4.6170   -1.4910   -2.9720 hn        1 MOL      0.288367
    126 H52         6.5430   -1.9510   -0.8700 h1        1 MOL      0.045529
    127 H53         7.0010   -1.3600   -3.7330 hc        1 MOL      0.077898
    128 H54         6.9030   -2.9700   -2.9930 hc        1 MOL      0.077898
    129 H55         8.6270   -3.4570   -1.3340 ha        1 MOL      0.089735
    130 H56         8.9810   -0.1490   -3.7880 ha        1 MOL      0.089735
    131 H57        11.2110   -3.6490   -1.0810 ha        1 MOL      0.119908
    132 H58        11.5060   -0.1310   -3.5410 ha        1 MOL      0.119908
    133 H59        12.5760   -1.8190   -2.1660 ha        1 MOL      0.087169
    134 N12         6.3230    1.2890   -1.6540 n         1 MOL     -0.058567
    135 C45         6.4750    2.6410   -0.9950 c3        1 MOL      0.121550
    136 C46         5.8990    2.5610    0.4450 c         1 MOL      0.223416
    137 O20         6.5580    3.0740    1.3290 o         1 MOL     -0.467935
    138 C47         5.7400    3.7420   -1.8480 c3        1 MOL     -0.024932
    139 C48         5.6700    2.9770   -3.1770 c3        1 MOL     -0.097763
    140 C49         5.5550    1.4650   -2.8530 c3        1 MOL     -0.138327
    141 H60         7.5190    2.9320   -0.8900 h1        1 MOL      0.040373
    142 H61         4.7050    3.7770   -1.5070 hc        1 MOL      0.043190
    143 H62         6.2140    4.7300   -1.8170 hc        1 MOL      0.043190
    144 H63         4.8230    3.3320   -3.7790 hc        1 MOL      0.043842
    145 H64         6.6540    3.1040   -3.6360 hc        1 MOL      0.043842
    146 H65         4.5260    1.2800   -2.5250 h1        1 MOL      0.071555
    147 H66         5.9670    0.8700   -3.6670 h1        1 MOL      0.071555
    148 N13         4.7460    1.9040    0.6610 n         1 MOL     -0.071290
    149 C50         4.0630    1.8680    1.9750 c3        1 MOL     -0.072779
    150 C51         4.8710    1.0470    3.0510 c         1 MOL      0.403573
    151 O21         4.9590    1.4840    4.2040 o         1 MOL     -0.555176
    152 C52         2.7070    1.1440    1.7570 c3        1 MOL     -0.137949
    153 C53         1.7870    1.7680    0.6410 c3        1 MOL     -0.224723
    154 C54         0.3100    1.2730    0.6530 c         1 MOL      0.885157
    155 O22         0.0010    0.1750    1.1640 o         1 MOL     -0.823869
    156 O23        -0.6590    1.8470    0.0660 o         1 MOL     -0.823869
    157 H67         4.1340    1.6300   -0.0980 hn        1 MOL      0.213046
    158 H68         3.9290    2.8690    2.3850 h1        1 MOL      0.098471
    159 H69         2.1780    1.3200    2.7000 hc        1 MOL      0.116234
    160 H70         2.8510    0.0860    1.5570 hc        1 MOL      0.116234
    161 H71         2.1860    1.5240   -0.3430 hc        1 MOL      0.063620
    162 H72         1.8820    2.8490    0.7180 hc        1 MOL      0.063620
    163 N14         5.3740   -0.1090    2.6540 n         1 MOL      0.009039
    164 C55         6.3630   -0.9870    3.4010 c3        1 MOL     -0.153402
    165 H73         7.1310   -1.3360    2.7110 h1        1 MOL      0.067959
    166 H74         6.8300   -0.4110    4.2000 h1        1 MOL      0.067959
    167 H75         5.8410   -1.8440    3.8260 h1        1 MOL      0.067959
    168 H76         5.3270   -0.3330    1.6680 hn        1 MOL      0.062006
    169 Ca1        -2.4070   -0.1360   -0.0550 Ca        1 MOL      1.696985
    170 O24        -4.8250   -0.0930    1.3990 oh        1 MOL     -0.732332
    171 H77        -5.0460    0.7900    1.6700 ho        1 MOL      0.373822
    172 H78        -4.8610   -0.6070    2.2040 ho        1 MOL      0.373822
    173 O25        -2.0800   -0.1880    2.7390 oh        1 MOL     -0.732332
    174 H79        -2.0580   -0.1980    3.7010 ho        1 MOL      0.373822
    175 H80        -1.1610   -0.2030    2.4820 ho        1 MOL      0.373822
@<TRIPOS>BOND
     1    1    2 1   
     2    1    4 1   
     3    1    5 1   
     4    1    6 1   
     5    2    3 2   
     6    2    7 1   
     7    7    8 1   
     8    7   15 1   
     9    8    9 1   
    10    8   11 1   
    11    8   16 1   
    12    9   10 2   
    13    9   19 1   
    14   11   12 1   
    15   11   17 1   
    16   11   18 1   
    17   12   13 1   
    18   12   14 1   
    19   19   20 1   
    20   19   24 1   
    21   20   21 1   
    22   20   23 1   
    23   20   25 1   
    24   21   22 2   
    25   21   29 1   
    26   23   26 1   
    27   23   27 1   
    28   23   28 1   
    29   29   30 1   
    30   29   37 1   
    31   30   31 1   
    32   30   33 1   
    33   30   38 1   
    34   31   32 2   
    35   31   41 1   
    36   33   34 1   
    37   33   39 1   
    38   33   40 1   
    39   34   35 1   
    40   34   36 1   
    41   41   42 1   
    42   41   45 1   
    43   42   43 1   
    44   42   46 1   
    45   42   47 1   
    46   43   44 2   
    47   43   48 1   
    48   48   49 1   
    49   48   56 1   
    50   49   50 1   
    51   49   52 1   
    52   49   57 1   
    53   50   51 2   
    54   50   62 1   
    55   52   53 1   
    56   52   58 1   
    57   52   59 1   
    58   53   54 1   
    59   53   55 2   
    60   54   60 1   
    61   54   61 1   
    62   62   63 1   
    63   62   66 1   
    64   63   64 1   
    65   63   67 1   
    66   63   68 1   
    67   64   65 2   
    68   64   69 1   
    69   69   70 1   
    70   69   76 1   
    71   70   71 1   
    72   70   73 1   
    73   70   77 1   
    74   71   72 2   
    75   71   83 1   
    76   73   74 1   
    77   73   75 1   
    78   73   78 1   
    79   74   80 1   
    80   74   81 1   
    81   74   82 1   
    82   75   79 1   
    83   83   84 1   
    84   83   91 1   
    85   84   85 1   
    86   84   87 1   
    87   84   92 1   
    88   85   86 2   
    89   85  102 1   
    90   87   88 1   
    91   87   89 1   
    92   87   93 1   
    93   88   90 1   
    94   88   94 1   
    95   88   95 1   
    96   89   96 1   
    97   89   97 1   
    98   89   98 1   
    99   90   99 1   
   100   90  100 1   
   101   90  101 1   
   102  102  103 1   
   103  102  110 1   
   104  103  104 1   
   105  103  106 1   
   106  103  111 1   
   107  104  105 2   
   108  104  114 1   
   109  106  107 1   
   110  106  112 1   
   111  106  113 1   
   112  107  108 1   
   113  107  109 1   
   114  114  115 1   
   115  114  125 1   
   116  115  116 1   
   117  115  118 1   
   118  115  126 1   
   119  116  117 2   
   120  116  134 1   
   121  118  119 1   
   122  118  127 1   
   123  118  128 1   
   124  119  120 ar  
   125  119  121 ar  
   126  120  122 ar  
   127  120  129 1   
   128  121  123 ar  
   129  121  130 1   
   130  122  124 ar  
   131  122  131 1   
   132  123  124 ar  
   133  123  132 1   
   134  124  133 1   
   135  134  135 1   
   136  134  140 1   
   137  135  136 1   
   138  135  138 1   
   139  135  141 1   
   140  136  137 2   
   141  136  148 1   
   142  138  139 1   
   143  138  142 1   
   144  138  143 1   
   145  139  140 1   
   146  139  144 1   
   147  139  145 1   
   148  140  146 1   
   149  140  147 1   
   150  148  149 1   
   151  148  157 1   
   152  149  150 1   
   153  149  152 1   
   154  149  158 1   
   155  150  151 2   
   156  150  163 1   
   157  152  153 1   
   158  152  159 1   
   159  152  160 1   
   160  153  154 1   
   161  153  161 1   
   162  153  162 1   
   163  154  155 1   
   164  154  156 1   
   165  163  164 1   
   166  163  168 1   
   167  164  165 1   
   168  164  166 1   
   169  164  167 1   
   170  170  171 1   
   171  170  172 1   
   172  173  174 1   
   173  173  175 1   
@<TRIPOS>SUBSTRUCTURE
     1 MOL         1 TEMP              0 ****  ****    0 ROOT
