@<TRIPOS>MOLECULE
MOL
  179   176     1     0     0
SMALL
resp


@<TRIPOS>ATOM
      1 C1         -0.4920    4.7190    5.0160 c3        1 MOL     -0.423261
      2 C2         -0.6430    4.0770    3.6520 c         1 MOL      0.572985
      3 O1          0.1920    4.2550    2.7680 o         1 MOL     -0.542083
      4 H1          0.4990    4.4960    5.4150 hc        1 MOL      0.109696
      5 H2         -0.6120    5.7990    4.9250 hc        1 MOL      0.109696
      6 H3         -1.2510    4.3240    5.6910 hc        1 MOL      0.109696
      7 N1         -1.6570    3.2540    3.4530 n         1 MOL     -0.326330
      8 C3         -2.0550    2.7140    2.2010 c3        1 MOL      0.024243
      9 C4         -2.7640    3.7880    1.3060 c         1 MOL      0.418278
     10 O2         -3.9560    3.8490    1.4480 o         1 MOL     -0.465872
     11 C5         -2.8250    1.3790    2.3900 c3        1 MOL     -0.252161
     12 C6         -3.0940    0.5590    1.1720 c         1 MOL      0.921606
     13 O3         -2.4330    0.8640    0.1510 o         1 MOL     -0.791417
     14 O4         -3.9000   -0.4150    1.2080 o         1 MOL     -0.791417
     15 H4         -2.2140    3.1370    4.2910 hn        1 MOL      0.256006
     16 H5         -1.1470    2.4280    1.6740 h1        1 MOL      0.050915
     17 H6         -3.8320    1.5350    2.7940 hc        1 MOL      0.057358
     18 H7         -2.2700    0.8350    3.1430 hc        1 MOL      0.057358
     19 N2         -2.0170    4.5850    0.4890 n         1 MOL     -0.287084
     20 C7         -2.5620    5.7020   -0.2640 c3        1 MOL     -0.151960
     21 C8         -3.3830    5.4620   -1.5180 c         1 MOL      0.477498
     22 O5         -4.1000    6.3160   -1.9840 o         1 MOL     -0.547272
     23 C9         -1.4300    6.6620   -0.7230 c3        1 MOL     -0.052316
     24 C10        -0.6900    7.4080    0.4210 c3        1 MOL     -0.054782
     25 C11        -1.7040    8.1210    1.4210 c3        1 MOL     -0.112932
     26 C12        -1.0480    9.1020    2.4750 c3        1 MOL      0.113103
     27 N3         -2.1460    9.9920    3.0790 n4        1 MOL     -0.402266
     28 H8         -1.0340    4.3770    0.3900 hn        1 MOL      0.317724
     29 H9         -3.2200    6.2680    0.3990 h1        1 MOL      0.108949
     30 H10        -1.7930    7.4020   -1.4310 hc        1 MOL      0.071386
     31 H11        -0.6620    6.1440   -1.3010 hc        1 MOL      0.071386
     32 H12        -0.1670    8.2510   -0.0240 hc        1 MOL      0.049361
     33 H13         0.0110    6.8230    1.0120 hc        1 MOL      0.049361
     34 H14        -2.3110    7.4450    2.0190 hc        1 MOL      0.053291
     35 H15        -2.4340    8.6860    0.8400 hc        1 MOL      0.053291
     36 H16        -0.3070    9.7520    1.9970 hx        1 MOL      0.070817
     37 H17        -0.5830    8.5690    3.3010 hx        1 MOL      0.070817
     38 H18        -1.7310   10.5410    3.8140 hn        1 MOL      0.333064
     39 H19        -2.5710   10.6620    2.4400 hn        1 MOL      0.333064
     40 H20        -2.8700    9.3610    3.3920 hn        1 MOL      0.333064
     41 N4         -3.4440    4.1750   -1.8810 n         1 MOL     -0.203023
     42 C13        -4.2470    3.6290   -2.9540 c3        1 MOL      0.156787
     43 C14        -5.4110    2.8540   -2.5280 c         1 MOL      0.339538
     44 O6         -6.3410    2.6010   -3.2960 o         1 MOL     -0.513641
     45 C15        -3.3850    2.8690   -3.9500 c3        1 MOL     -0.344360
     46 C16        -2.5420    1.8520   -3.2190 c         1 MOL      0.782740
     47 O7         -1.3990    2.1280   -2.8120 o         1 MOL     -0.760581
     48 O8         -3.0210    0.7160   -3.0000 o         1 MOL     -0.760581
     49 H21        -2.8080    3.5840   -1.3750 hn        1 MOL      0.172665
     50 H22        -4.7020    4.4230   -3.5520 h1        1 MOL      0.071498
     51 H23        -2.7500    3.6170   -4.4280 hc        1 MOL      0.092539
     52 H24        -4.0920    2.3660   -4.6010 hc        1 MOL      0.092539
     53 N5         -5.3820    2.3430   -1.3010 n         1 MOL     -0.002609
     54 C17        -6.4230    1.6640   -0.6130 c3        1 MOL     -0.118322
     55 C18        -6.7370    0.1580   -0.9410 c         1 MOL      0.456607
     56 O9         -7.9210   -0.0850   -1.0290 o         1 MOL     -0.545227
     57 H25        -4.5270    2.4900   -0.7800 hn        1 MOL     -0.034788
     58 H26        -7.3460    2.2320   -0.6680 h1        1 MOL      0.085982
     59 H27        -6.1470    1.6660    0.4360 h1        1 MOL      0.085982
     60 N6         -5.7530   -0.6920   -1.2180 n         1 MOL     -0.072531
     61 C19        -5.9450   -2.1080   -1.5360 c3        1 MOL     -0.073686
     62 C20        -5.8630   -3.1120   -0.3600 c         1 MOL      0.387230
     63 O10        -6.1440   -4.2800   -0.5310 o         1 MOL     -0.489237
     64 C21        -5.0880   -2.5530   -2.7080 c3        1 MOL     -0.075711
     65 C22        -3.6320   -2.7290   -2.3110 c         1 MOL      0.333425
     66 N7         -3.0200   -3.8070   -2.7120 n         1 MOL     -0.542849
     67 O11        -3.0710   -1.9690   -1.5370 o         1 MOL     -0.267516
     68 H28        -4.8110   -0.3250   -1.1620 hn        1 MOL      0.080204
     69 H29        -7.0010   -2.3280   -1.7390 h1        1 MOL      0.109610
     70 H30        -5.1500   -1.7950   -3.4860 hc        1 MOL      0.061211
     71 H31        -5.4300   -3.4730   -3.1870 hc        1 MOL      0.061211
     72 H32        -3.3600   -4.4420   -3.4190 hn        1 MOL      0.303742
     73 H33        -2.0290   -3.9090   -2.5410 hn        1 MOL      0.303742
     74 N8         -5.4550   -2.6760    0.8080 n         1 MOL     -0.301143
     75 C23        -5.2020   -3.6150    1.9600 c3        1 MOL     -0.115871
     76 C24        -3.7420   -3.7260    2.3250 c         1 MOL      0.690671
     77 O12        -3.4070   -4.2760    3.3750 o         1 MOL     -0.626328
     78 H34        -5.1640   -1.7120    0.8110 hn        1 MOL      0.250774
     79 H35        -5.6080   -4.6210    1.9250 h1        1 MOL      0.101425
     80 H36        -5.5980   -3.1840    2.8830 h1        1 MOL      0.101425
     81 N9         -2.8110   -3.3220    1.4960 n         1 MOL     -0.522489
     82 C25        -1.4380   -3.8010    1.5530 c3        1 MOL      0.001343
     83 C26        -0.3580   -2.7110    1.3200 c         1 MOL      0.769395
     84 O13        -0.6400   -1.7770    0.5390 o         1 MOL     -0.721395
     85 C27        -1.2930   -4.8740    0.4470 c3        1 MOL      0.077236
     86 C28        -2.1930   -6.0260    0.6950 ca        1 MOL     -0.080018
     87 C29        -3.4830   -6.1760    0.0970 ca        1 MOL     -0.136342
     88 C30        -1.7570   -6.9650    1.6530 ca        1 MOL     -0.136342
     89 C31        -4.2970   -7.3090    0.3770 ca        1 MOL     -0.221504
     90 C32        -2.5390   -8.0740    1.9100 ca        1 MOL     -0.221504
     91 C33        -3.8220   -8.2360    1.3180 ca        1 MOL      0.331545
     92 O14        -4.4790   -9.4250    1.5550 oh        1 MOL     -0.507802
     93 H37        -3.0630   -2.7270    0.7230 hn        1 MOL      0.370051
     94 H38        -1.1530   -4.2530    2.5000 h1        1 MOL      0.091177
     95 H39        -0.2730   -5.2430    0.4810 hc        1 MOL      0.001505
     96 H40        -1.5040   -4.3520   -0.4910 hc        1 MOL      0.001505
     97 H41        -3.7930   -5.3870   -0.5690 ha        1 MOL      0.119455
     98 H42        -0.8620   -6.8320    2.2470 ha        1 MOL      0.119455
     99 H43        -5.2760   -7.3820   -0.0650 ha        1 MOL      0.132827
    100 H44        -2.0780   -8.8560    2.4910 ha        1 MOL      0.132827
    101 H45        -4.1670   -9.9440    2.2900 ho        1 MOL      0.360732
    102 N10         0.7690   -2.7740    2.0030 n         1 MOL     -0.606527
    103 C34         1.9450   -1.9300    1.8220 c3        1 MOL      0.104847
    104 C35         3.1000   -2.8730    1.4640 c         1 MOL      0.477182
    105 O15         3.4860   -3.8870    2.1380 o         1 MOL     -0.547611
    106 C36         2.2840   -1.0430    3.0620 c3        1 MOL     -0.092226
    107 C37         1.1000   -0.0890    3.1810 c3        1 MOL      0.071387
    108 C38         3.6440   -0.3610    3.0990 c3        1 MOL     -0.040391
    109 C39         1.0450    0.7340    4.5400 c3        1 MOL     -0.267202
    110 H46         0.7830   -3.6090    2.5650 hn        1 MOL      0.304237
    111 H47         1.8260   -1.2380    0.9870 h1        1 MOL      0.044399
    112 H48         2.1450   -1.6570    3.9530 hc        1 MOL      0.049676
    113 H49         0.1520   -0.6180    3.1040 hc        1 MOL      0.060567
    114 H50         1.2590    0.5770    2.3420 hc        1 MOL      0.060567
    115 H51         3.9150    0.0340    4.0800 hc        1 MOL      0.030962
    116 H52         4.4380   -1.0900    2.9460 hc        1 MOL      0.030962
    117 H53         3.7210    0.4050    2.3240 hc        1 MOL      0.030962
    118 H54         1.6850    1.6050    4.4790 hc        1 MOL      0.062148
    119 H55         0.0440    1.1430    4.6970 hc        1 MOL      0.062148
    120 H56         1.2690    0.1340    5.4270 hc        1 MOL      0.062148
    121 N11         3.8610   -2.5650    0.4070 n         1 MOL     -0.312725
    122 C40         5.2110   -3.1200    0.0560 c3        1 MOL      0.035277
    123 C41         6.3350   -2.1980    0.5380 c         1 MOL      0.492735
    124 O16         6.1270   -0.9920    0.7460 o         1 MOL     -0.389837
    125 C42         5.2420   -3.1660   -1.5130 c3        1 MOL     -0.187252
    126 O17         5.4710   -1.9440   -2.2010 oh        1 MOL     -0.355751
    127 H57         3.6290   -1.7390   -0.1230 hn        1 MOL      0.200459
    128 H58         5.3400   -4.1390    0.4270 h1        1 MOL      0.096377
    129 H59         4.2880   -3.5540   -1.8580 h1        1 MOL      0.105637
    130 H60         6.0010   -3.8550   -1.8740 h1        1 MOL      0.105637
    131 H61         5.3690   -2.0550   -3.1460 ho        1 MOL      0.362690
    132 N12         7.6010   -2.7140    0.4380 n         1 MOL     -0.550745
    133 C43         8.8130   -1.8510    0.6790 c3        1 MOL      0.182111
    134 C44         8.9890   -0.7210   -0.3080 c         1 MOL      0.409295
    135 O18         9.5620    0.3660    0.0180 o         1 MOL     -0.491300
    136 C45         9.9980   -2.7500    0.7670 c3        1 MOL     -0.234864
    137 H62         7.7930   -3.6810    0.2030 hn        1 MOL      0.319315
    138 H63         8.7270   -1.4110    1.6690 h1        1 MOL      0.085298
    139 H64        10.2160   -3.2550   -0.1820 hc        1 MOL      0.076156
    140 H65        10.8180   -2.1140    1.1060 hc        1 MOL      0.076156
    141 H66         9.9140   -3.5500    1.5140 hc        1 MOL      0.076156
    142 N13         8.3770   -0.8910   -1.5460 n         1 MOL     -0.366807
    143 C46         8.5020    0.0890   -2.6600 c3        1 MOL      0.097573
    144 C47         7.5420    1.3160   -2.3890 c         1 MOL      0.409670
    145 O19         7.8850    2.4340   -2.8190 o         1 MOL     -0.523367
    146 C48         8.2270   -0.5840   -4.0390 c3        1 MOL     -0.328989
    147 H67         7.8480   -1.7190   -1.7430 hn        1 MOL      0.240897
    148 H68         9.5090    0.4940   -2.5240 h1        1 MOL      0.099101
    149 H69         9.0150   -1.2450   -4.3910 hc        1 MOL      0.097595
    150 H70         7.3100   -1.1610   -3.9040 hc        1 MOL      0.097595
    151 H71         8.0710    0.2550   -4.7220 hc        1 MOL      0.097595
    152 N14         6.4200    1.1420   -1.6450 n         1 MOL     -0.081394
    153 C49         5.5090    2.2030   -1.3390 c3        1 MOL     -0.109600
    154 C50         5.5500    2.7930    0.0970 c         1 MOL      0.404488
    155 O20         4.9940    3.8950    0.3750 o         1 MOL     -0.540523
    156 C51         4.1330    1.7800   -1.7690 c3        1 MOL     -0.019417
    157 C52         3.4690    0.7060   -0.8750 c3        1 MOL     -0.012627
    158 C53         2.0020    0.4630   -1.2240 c         1 MOL      0.654011
    159 O21         1.7520   -0.0890   -2.3400 o         1 MOL     -0.731285
    160 O22         1.0290    0.8160   -0.5170 o         1 MOL     -0.731285
    161 H72         6.1630    0.2120   -1.3420 hn        1 MOL      0.007868
    162 H73         5.6980    3.1070   -1.9160 h1        1 MOL      0.113824
    163 H74         4.0420    1.4660   -2.8040 hc        1 MOL      0.036705
    164 H75         3.5590    2.7100   -1.6850 hc        1 MOL      0.036705
    165 H76         3.5450    1.0380    0.1630 hc        1 MOL      0.007358
    166 H77         4.0750   -0.1890   -1.0320 hc        1 MOL      0.007358
    167 N15         6.1430    2.0180    0.9830 n         1 MOL     -0.077203
    168 C54         6.4730    2.2620    2.3700 c3        1 MOL     -0.047392
    169 H78         7.5560    2.2920    2.4850 h1        1 MOL      0.043216
    170 H79         6.0480    3.2160    2.6830 h1        1 MOL      0.043216
    171 H80         6.0640    1.4620    2.9880 h1        1 MOL      0.043216
    172 H81         6.4580    1.1090    0.6730 hn        1 MOL      0.117390
    173 Ca1        -1.0120   -0.2480   -1.6090 Ca        1 MOL      1.755514
    174 O23        -0.8550   -1.1950   -4.2110 oh        1 MOL     -0.929704
    175 H82        -0.3370   -0.6730   -4.8330 ho        1 MOL      0.447820
    176 H83        -1.6260   -1.4710   -4.7150 ho        1 MOL      0.447820
    177 O24        -0.1040   -3.2550   -2.2810 oh        1 MOL     -0.929704
    178 H84        -0.0750   -3.0090   -3.2130 ho        1 MOL      0.447820
    179 H85         0.7800   -3.5910   -2.0930 ho        1 MOL      0.447820
@<TRIPOS>BOND
     1    1    2 1   
     2    1    4 1   
     3    1    5 1   
     4    1    6 1   
     5    2    3 2   
     6    2    7 1   
     7    7    8 1   
     8    7   15 1   
     9    8    9 1   
    10    8   11 1   
    11    8   16 1   
    12    9   10 2   
    13    9   19 1   
    14   11   12 1   
    15   11   17 1   
    16   11   18 1   
    17   12   13 1   
    18   12   14 1   
    19   19   20 1   
    20   19   28 1   
    21   20   21 1   
    22   20   23 1   
    23   20   29 1   
    24   21   22 2   
    25   21   41 1   
    26   23   24 1   
    27   23   30 1   
    28   23   31 1   
    29   24   25 1   
    30   24   32 1   
    31   24   33 1   
    32   25   26 1   
    33   25   34 1   
    34   25   35 1   
    35   26   27 1   
    36   26   36 1   
    37   26   37 1   
    38   27   38 1   
    39   27   39 1   
    40   27   40 1   
    41   41   42 1   
    42   41   49 1   
    43   42   43 1   
    44   42   45 1   
    45   42   50 1   
    46   43   44 2   
    47   43   53 1   
    48   45   46 1   
    49   45   51 1   
    50   45   52 1   
    51   46   47 1   
    52   46   48 1   
    53   53   54 1   
    54   53   57 1   
    55   54   55 1   
    56   54   58 1   
    57   54   59 1   
    58   55   56 2   
    59   55   60 1   
    60   60   61 1   
    61   60   68 1   
    62   61   62 1   
    63   61   64 1   
    64   61   69 1   
    65   62   63 2   
    66   62   74 1   
    67   64   65 1   
    68   64   70 1   
    69   64   71 1   
    70   65   66 1   
    71   65   67 2   
    72   66   72 1   
    73   66   73 1   
    74   74   75 1   
    75   74   78 1   
    76   75   76 1   
    77   75   79 1   
    78   75   80 1   
    79   76   77 2   
    80   76   81 1   
    81   81   82 1   
    82   81   93 1   
    83   82   83 1   
    84   82   85 1   
    85   82   94 1   
    86   83   84 2   
    87   83  102 1   
    88   85   86 1   
    89   85   95 1   
    90   85   96 1   
    91   86   87 ar  
    92   86   88 ar  
    93   87   89 ar  
    94   87   97 1   
    95   88   90 ar  
    96   88   98 1   
    97   89   91 ar  
    98   89   99 1   
    99   90   91 ar  
   100   90  100 1   
   101   91   92 1   
   102   92  101 1   
   103  102  103 1   
   104  102  110 1   
   105  103  104 1   
   106  103  106 1   
   107  103  111 1   
   108  104  105 2   
   109  104  121 1   
   110  106  107 1   
   111  106  108 1   
   112  106  112 1   
   113  107  109 1   
   114  107  113 1   
   115  107  114 1   
   116  108  115 1   
   117  108  116 1   
   118  108  117 1   
   119  109  118 1   
   120  109  119 1   
   121  109  120 1   
   122  121  122 1   
   123  121  127 1   
   124  122  123 1   
   125  122  125 1   
   126  122  128 1   
   127  123  124 2   
   128  123  132 1   
   129  125  126 1   
   130  125  129 1   
   131  125  130 1   
   132  126  131 1   
   133  132  133 1   
   134  132  137 1   
   135  133  134 1   
   136  133  136 1   
   137  133  138 1   
   138  134  135 2   
   139  134  142 1   
   140  136  139 1   
   141  136  140 1   
   142  136  141 1   
   143  142  143 1   
   144  142  147 1   
   145  143  144 1   
   146  143  146 1   
   147  143  148 1   
   148  144  145 2   
   149  144  152 1   
   150  146  149 1   
   151  146  150 1   
   152  146  151 1   
   153  152  153 1   
   154  152  161 1   
   155  153  154 1   
   156  153  156 1   
   157  153  162 1   
   158  154  155 2   
   159  154  167 1   
   160  156  157 1   
   161  156  163 1   
   162  156  164 1   
   163  157  158 1   
   164  157  165 1   
   165  157  166 1   
   166  158  159 1   
   167  158  160 1   
   168  167  168 1   
   169  167  172 1   
   170  168  169 1   
   171  168  170 1   
   172  168  171 1   
   173  174  175 1   
   174  174  176 1   
   175  177  178 1   
   176  177  179 1   
@<TRIPOS>SUBSTRUCTURE
     1 MOL         1 TEMP              0 ****  ****    0 ROOT
