@<TRIPOS>MOLECULE
MOL
  182   178     1     0     0
SMALL
resp


@<TRIPOS>ATOM
      1 C1         -1.3660   -2.8350    6.0240 c3        1 MOL     -0.331173
      2 C2         -0.9430   -2.2040    4.7020 c         1 MOL      0.707772
      3 O1         -1.8110   -1.7790    3.9670 o         1 MOL     -0.574256
      4 H1         -0.4790   -3.0980    6.6010 hc        1 MOL      0.081425
      5 H2         -1.9700   -2.1250    6.5900 hc        1 MOL      0.081425
      6 H3         -1.9510   -3.7340    5.8280 hc        1 MOL      0.081425
      7 N1          0.3230   -2.3700    4.3720 n         1 MOL     -0.541508
      8 C3          0.8270   -2.2180    3.0250 c3        1 MOL      0.029357
      9 C4          0.8090   -3.5650    2.2380 c         1 MOL      0.601403
     10 O2          1.4300   -4.5450    2.6910 o         1 MOL     -0.541214
     11 C5          2.1930   -1.5470    3.0100 c3        1 MOL     -0.107375
     12 C6          2.8640   -1.2320    1.6620 c         1 MOL      0.620651
     13 O3          2.2340   -1.3940    0.5780 o         1 MOL     -0.680342
     14 O4          4.0760   -0.8900    1.6890 o         1 MOL     -0.680342
     15 H4          0.9920   -2.7360    5.0270 hn        1 MOL      0.323099
     16 H5          0.0910   -1.5860    2.5240 h1        1 MOL      0.002521
     17 H6          2.8860   -2.2640    3.4670 hc        1 MOL      0.040679
     18 H7          2.2390   -0.6720    3.6570 hc        1 MOL      0.040679
     19 N2          0.0520   -3.6880    1.0450 n         1 MOL     -0.387008
     20 C7         -0.1440   -5.0350    0.4500 c3        1 MOL      0.015254
     21 C8          1.1050   -5.5570   -0.2740 c         1 MOL      0.482569
     22 O5          1.3640   -6.7580   -0.1910 o         1 MOL     -0.545107
     23 C9         -1.3170   -4.9000   -0.5170 c3        1 MOL     -0.228436
     24 C10        -2.6500   -5.1340    0.0830 c3        1 MOL      0.291530
     25 C11        -3.8740   -4.9920   -0.8340 c3        1 MOL     -0.137545
     26 C12        -5.2160   -5.1720   -0.1740 c3        1 MOL     -0.055556
     27 N3         -6.2300   -4.8660   -1.1620 n4        1 MOL     -0.203704
     28 H8         -0.4740   -2.8880    0.7380 hn        1 MOL      0.228242
     29 H9         -0.2480   -5.7560    1.2560 h1        1 MOL      0.082102
     30 H10        -1.1550   -5.7760   -1.1400 hc        1 MOL      0.059369
     31 H11        -1.3700   -4.0020   -1.1300 hc        1 MOL      0.059369
     32 H12        -2.8130   -4.5450    0.9850 hc        1 MOL     -0.025232
     33 H13        -2.6610   -6.1530    0.4530 hc        1 MOL     -0.025232
     34 H14        -3.6350   -5.6820   -1.6370 hc        1 MOL      0.029847
     35 H15        -3.7450   -4.0230   -1.3270 hc        1 MOL      0.029847
     36 H16        -5.3270   -4.5180    0.6840 hx        1 MOL      0.115531
     37 H17        -5.3210   -6.2170    0.1210 hx        1 MOL      0.115531
     38 H18        -6.2800   -5.5830   -1.8690 hn        1 MOL      0.289893
     39 H19        -7.1710   -4.7250   -0.8390 hn        1 MOL      0.289893
     40 H20        -5.9750   -4.0260   -1.6650 hn        1 MOL      0.289893
     41 N4          1.8970   -4.6720   -0.9080 n         1 MOL     -0.346841
     42 C13         3.1520   -5.1160   -1.6050 c3        1 MOL      0.060686
     43 C14         4.4820   -4.8780   -0.8290 c         1 MOL      0.443107
     44 O6          5.4640   -5.3100   -1.3730 o         1 MOL     -0.523356
     45 C15         3.1690   -4.6190   -3.0170 c3        1 MOL     -0.239572
     46 C16         2.8320   -3.1540   -3.2750 c         1 MOL      0.807397
     47 O7          2.6050   -2.4240   -2.2630 o         1 MOL     -0.729614
     48 O8          2.5930   -2.7250   -4.3970 o         1 MOL     -0.729614
     49 H21         1.6830   -3.6960   -1.0710 hn        1 MOL      0.197362
     50 H22         3.0200   -6.2010   -1.6570 h1        1 MOL      0.097408
     51 H23         2.4710   -5.2220   -3.6080 hc        1 MOL      0.066341
     52 H24         4.1600   -4.7630   -3.4570 hc        1 MOL      0.066341
     53 N5          4.3390   -4.2210    0.2970 n         1 MOL     -0.225880
     54 C17         5.4840   -3.7430    1.0780 c3        1 MOL     -0.195257
     55 C18         6.2830   -2.5940    0.3880 c         1 MOL      0.566699
     56 O9          7.3760   -2.3370    0.8360 o         1 MOL     -0.570690
     57 H25         3.4450   -3.9300    0.6390 hn        1 MOL      0.224676
     58 H26         6.0810   -4.6390    1.2750 h1        1 MOL      0.119435
     59 H27         5.1930   -3.4370    2.0850 h1        1 MOL      0.119435
     60 N6          5.7320   -1.8200   -0.5460 n         1 MOL     -0.335364
     61 C19         6.4050   -0.6610   -1.1430 c3        1 MOL     -0.035350
     62 C20         6.5270    0.6040   -0.2870 c         1 MOL      0.236722
     63 O10         6.9390    1.6300   -0.7710 o         1 MOL     -0.461054
     64 C21         5.7720   -0.4610   -2.5110 c3        1 MOL     -0.215196
     65 C22         4.6190    0.5680   -2.5260 c         1 MOL      0.579999
     66 N7          4.6230    1.5600   -3.3710 n         1 MOL     -0.783370
     67 O11         3.6590    0.4210   -1.7830 o         1 MOL     -0.506523
     68 H28         4.7500   -1.8390   -0.7950 hn        1 MOL      0.237821
     69 H29         7.4630   -0.8830   -1.2590 h1        1 MOL      0.152072
     70 H30         5.4150   -1.3880   -2.9520 hc        1 MOL      0.093629
     71 H31         6.5390   -0.0810   -3.1800 hc        1 MOL      0.093629
     72 H32         5.4410    1.7140   -3.9410 hn        1 MOL      0.377357
     73 H33         3.8280    2.1800   -3.4370 hn        1 MOL      0.377357
     74 N8          6.0600    0.6430    0.9570 n         1 MOL      0.060309
     75 C23         6.1620    1.7210    2.0010 c3        1 MOL     -0.526556
     76 C24         5.0070    2.7930    1.9530 c         1 MOL      0.770654
     77 O12         5.1120    3.9350    2.4730 o         1 MOL     -0.545435
     78 H34         5.5840   -0.2180    1.1770 hn        1 MOL      0.198387
     79 H35         7.1330    2.1790    1.8160 h1        1 MOL      0.182771
     80 H36         6.2410    1.0860    2.8760 h1        1 MOL      0.182771
     81 N9          3.8630    2.4320    1.3490 n         1 MOL     -0.704978
     82 C25         2.7690    3.3440    1.0010 c3        1 MOL      0.317820
     83 C26         1.4990    2.5280    0.8030 c         1 MOL      0.476259
     84 O13         1.4750    1.4270    0.3330 o         1 MOL     -0.624347
     85 C27         3.1320    4.0750   -0.3060 c3        1 MOL     -0.072655
     86 C28         4.3230    5.0130   -0.3260 ca        1 MOL     -0.053421
     87 C29         5.4730    4.7730   -1.0730 ca        1 MOL     -0.106318
     88 C30         4.2650    6.1190    0.5300 ca        1 MOL     -0.106318
     89 C31         6.5340    5.7620   -1.0710 ca        1 MOL     -0.277369
     90 C32         5.3350    7.0230    0.6110 ca        1 MOL     -0.277369
     91 C33         6.4750    6.8580   -0.1940 ca        1 MOL      0.361339
     92 O14         7.5000    7.7680   -0.0120 oh        1 MOL     -0.505948
     93 H37         3.8080    1.5480    0.8630 hn        1 MOL      0.442277
     94 H38         2.5730    4.0020    1.8380 h1        1 MOL      0.005967
     95 H39         2.2590    4.6060   -0.6910 hc        1 MOL      0.027456
     96 H40         3.2500    3.2750   -1.0510 hc        1 MOL      0.027456
     97 H41         5.6110    3.8240   -1.5740 ha        1 MOL      0.115772
     98 H42         3.4580    6.3740    1.1980 ha        1 MOL      0.115772
     99 H43         7.4280    5.5730   -1.6450 ha        1 MOL      0.149120
    100 H44         5.2050    7.8720    1.2670 ha        1 MOL      0.149120
    101 H45         7.2240    8.4920    0.5500 ho        1 MOL      0.359412
    102 N10         0.3610    3.1620    1.1110 n         1 MOL     -0.462743
    103 C34        -0.9750    2.5280    1.2850 c3        1 MOL      0.015188
    104 C35        -1.9200    3.3910    0.4790 c         1 MOL      0.446776
    105 O15        -2.0600    4.6140    0.7780 o         1 MOL     -0.528668
    106 C36        -1.3530    2.5670    2.8290 c3        1 MOL      0.005679
    107 C37        -0.5110    1.4510    3.4470 c3        1 MOL      0.085339
    108 C38        -2.8120    2.3950    3.1470 c3        1 MOL     -0.219820
    109 C39        -0.7060    1.1960    4.9900 c3        1 MOL     -0.195444
    110 H46         0.5360    4.0850    1.4670 hn        1 MOL      0.279677
    111 H47        -1.0850    1.5540    0.8120 h1        1 MOL      0.043234
    112 H48        -1.0530    3.5640    3.1680 hc        1 MOL      0.042940
    113 H49         0.5250    1.7410    3.2620 hc        1 MOL      0.039423
    114 H50        -0.7260    0.5350    2.9110 hc        1 MOL      0.039423
    115 H51        -3.3300    3.1650    2.5710 hc        1 MOL      0.059026
    116 H52        -3.1650    1.3760    3.0220 hc        1 MOL      0.059026
    117 H53        -3.0570    2.5480    4.2080 hc        1 MOL      0.059026
    118 H54        -0.4680    2.1570    5.4390 hc        1 MOL      0.042097
    119 H55        -1.7260    0.8660    5.1810 hc        1 MOL      0.042097
    120 H56         0.0390    0.5340    5.4250 hc        1 MOL      0.042097
    121 N11        -2.5970    2.9450   -0.6190 n         1 MOL     -0.244665
    122 C40        -3.6640    3.5190   -1.4430 c3        1 MOL     -0.040468
    123 C41        -5.0190    3.5230   -0.7100 c         1 MOL      0.465920
    124 O16        -5.1760    2.9130    0.3060 o         1 MOL     -0.311618
    125 C42        -3.7490    2.8070   -2.8390 c3        1 MOL     -0.256500
    126 O17        -4.4260    1.6560   -2.7070 oh        1 MOL     -0.439122
    127 H57        -2.2250    2.0350   -0.8770 hn        1 MOL      0.236198
    128 H58        -3.3680    4.5540   -1.6050 h1        1 MOL      0.074780
    129 H59        -2.7990    2.6800   -3.3530 h1        1 MOL      0.141162
    130 H60        -4.3300    3.5060   -3.4440 h1        1 MOL      0.141162
    131 H61        -3.9550    0.9850   -3.1990 ho        1 MOL      0.399667
    132 N12        -6.0290    4.1280   -1.3330 n         1 MOL     -0.437580
    133 C43        -7.3460    4.0160   -0.8950 c3        1 MOL      0.198583
    134 C44        -7.9550    2.5600   -0.9870 c         1 MOL      0.343255
    135 O18        -8.7560    2.0810   -0.1500 o         1 MOL     -0.478183
    136 C45        -8.2420    4.9700   -1.7640 c3        1 MOL     -0.446529
    137 H62        -5.9180    4.6320   -2.1980 hn        1 MOL      0.292129
    138 H63        -7.4010    4.2630    0.1650 h1        1 MOL      0.072273
    139 H64        -7.8760    5.9610   -1.4650 hc        1 MOL      0.135250
    140 H65        -8.2830    4.8340   -2.8400 hc        1 MOL      0.135250
    141 H66        -9.2420    4.9710   -1.3260 hc        1 MOL      0.135250
    142 N13        -7.6520    1.8130   -2.0820 n         1 MOL     -0.311736
    143 C46        -7.9700    0.3680   -2.1810 c3        1 MOL      0.015623
    144 C47        -7.3190   -0.4250   -1.0360 c         1 MOL      0.419734
    145 O19        -7.8880   -1.4240   -0.5980 o         1 MOL     -0.540110
    146 C48        -7.6640   -0.2300   -3.5200 c3        1 MOL     -0.194873
    147 H67        -7.0670    2.1740   -2.8220 hn        1 MOL      0.253754
    148 H68        -9.0470    0.3590   -2.0480 h1        1 MOL      0.134032
    149 H69        -6.6070   -0.4820   -3.6380 hc        1 MOL      0.060339
    150 H70        -8.2070   -1.1660   -3.6070 hc        1 MOL      0.060339
    151 H71        -7.9130    0.4840   -4.3040 hc        1 MOL      0.060339
    152 N14        -6.0760   -0.1450   -0.5420 n         1 MOL     -0.171961
    153 C49        -5.3090   -0.8120    0.6090 c3        1 MOL     -0.105175
    154 C50        -6.0280   -0.4950    1.9610 c         1 MOL      0.567254
    155 O20        -6.2830   -1.3740    2.7250 o         1 MOL     -0.552311
    156 C51        -3.8560   -0.2830    0.5200 c3        1 MOL     -0.067992
    157 C52        -3.1110   -1.0920   -0.5360 c3        1 MOL      0.157469
    158 C53        -1.6670   -0.6550   -0.5770 c         1 MOL      0.792128
    159 O21        -0.8000   -1.4060   -0.0960 o         1 MOL     -0.726318
    160 O22        -1.3040    0.3930   -1.2530 o         1 MOL     -0.726318
    161 H72        -5.6140    0.6590   -0.9580 hn        1 MOL      0.066719
    162 H73        -5.2460   -1.8950    0.6150 h1        1 MOL      0.062219
    163 H74        -3.3780   -0.3410    1.4960 hc        1 MOL      0.069410
    164 H75        -3.8930    0.7750    0.2390 hc        1 MOL      0.069410
    165 H76        -3.5410   -1.0390   -1.5380 hc        1 MOL     -0.089204
    166 H77        -3.1450   -2.1370   -0.2590 hc        1 MOL     -0.089204
    167 N15        -6.3860    0.7750    2.1770 n         1 MOL     -0.042822
    168 C54        -7.2360    1.1330    3.2780 c3        1 MOL     -0.488607
    169 H78        -7.3270    2.2180    3.3270 h1        1 MOL      0.162953
    170 H79        -8.2220    0.6930    3.1350 h1        1 MOL      0.162953
    171 H80        -6.8030    0.7640    4.2070 h1        1 MOL      0.162953
    172 H81        -5.9550    1.4790    1.5750 hn        1 MOL      0.086853
    173 Ca1         1.2330   -0.4010   -1.4860 Ca        1 MOL      1.817245
    174 O23        -0.1480   -1.8520   -3.3810 oh        1 MOL     -0.899579
    175 H82         0.5260   -2.0850   -4.0300 ho        1 MOL      0.421006
    176 H83        -0.9080   -2.3850   -3.6270 ho        1 MOL      0.421006
    177 O24         0.5090    1.9860   -2.4390 oh        1 MOL     -0.899579
    178 H84         0.8390    2.3870   -3.2410 ho        1 MOL      0.421006
    179 H85        -0.3000    2.4740   -2.2470 ho        1 MOL      0.421006
    180 O25         1.9740   -0.1890   -4.1370 oh        1 MOL     -0.899579
    181 H86         2.2850   -1.0840   -4.2350 ho        1 MOL      0.421006
    182 H87         2.1890    0.2390   -4.9630 ho        1 MOL      0.421006
@<TRIPOS>BOND
     1    1    2 1   
     2    1    4 1   
     3    1    5 1   
     4    1    6 1   
     5    2    3 2   
     6    2    7 1   
     7    7    8 1   
     8    7   15 1   
     9    8    9 1   
    10    8   11 1   
    11    8   16 1   
    12    9   10 2   
    13    9   19 1   
    14   11   12 1   
    15   11   17 1   
    16   11   18 1   
    17   12   13 1   
    18   12   14 1   
    19   19   20 1   
    20   19   28 1   
    21   20   21 1   
    22   20   23 1   
    23   20   29 1   
    24   21   22 2   
    25   21   41 1   
    26   23   24 1   
    27   23   30 1   
    28   23   31 1   
    29   24   25 1   
    30   24   32 1   
    31   24   33 1   
    32   25   26 1   
    33   25   34 1   
    34   25   35 1   
    35   26   27 1   
    36   26   36 1   
    37   26   37 1   
    38   27   38 1   
    39   27   39 1   
    40   27   40 1   
    41   41   42 1   
    42   41   49 1   
    43   42   43 1   
    44   42   45 1   
    45   42   50 1   
    46   43   44 2   
    47   43   53 1   
    48   45   46 1   
    49   45   51 1   
    50   45   52 1   
    51   46   47 1   
    52   46   48 1   
    53   53   54 1   
    54   53   57 1   
    55   54   55 1   
    56   54   58 1   
    57   54   59 1   
    58   55   56 2   
    59   55   60 1   
    60   60   61 1   
    61   60   68 1   
    62   61   62 1   
    63   61   64 1   
    64   61   69 1   
    65   62   63 2   
    66   62   74 1   
    67   64   65 1   
    68   64   70 1   
    69   64   71 1   
    70   65   66 1   
    71   65   67 2   
    72   66   72 1   
    73   66   73 1   
    74   74   75 1   
    75   74   78 1   
    76   75   76 1   
    77   75   79 1   
    78   75   80 1   
    79   76   77 2   
    80   76   81 1   
    81   81   82 1   
    82   81   93 1   
    83   82   83 1   
    84   82   85 1   
    85   82   94 1   
    86   83   84 2   
    87   83  102 1   
    88   85   86 1   
    89   85   95 1   
    90   85   96 1   
    91   86   87 ar  
    92   86   88 ar  
    93   87   89 ar  
    94   87   97 1   
    95   88   90 ar  
    96   88   98 1   
    97   89   91 ar  
    98   89   99 1   
    99   90   91 ar  
   100   90  100 1   
   101   91   92 1   
   102   92  101 1   
   103  102  103 1   
   104  102  110 1   
   105  103  104 1   
   106  103  106 1   
   107  103  111 1   
   108  104  105 2   
   109  104  121 1   
   110  106  107 1   
   111  106  108 1   
   112  106  112 1   
   113  107  109 1   
   114  107  113 1   
   115  107  114 1   
   116  108  115 1   
   117  108  116 1   
   118  108  117 1   
   119  109  118 1   
   120  109  119 1   
   121  109  120 1   
   122  121  122 1   
   123  121  127 1   
   124  122  123 1   
   125  122  125 1   
   126  122  128 1   
   127  123  124 2   
   128  123  132 1   
   129  125  126 1   
   130  125  129 1   
   131  125  130 1   
   132  126  131 1   
   133  132  133 1   
   134  132  137 1   
   135  133  134 1   
   136  133  136 1   
   137  133  138 1   
   138  134  135 2   
   139  134  142 1   
   140  136  139 1   
   141  136  140 1   
   142  136  141 1   
   143  142  143 1   
   144  142  147 1   
   145  143  144 1   
   146  143  146 1   
   147  143  148 1   
   148  144  145 2   
   149  144  152 1   
   150  146  149 1   
   151  146  150 1   
   152  146  151 1   
   153  152  153 1   
   154  152  161 1   
   155  153  154 1   
   156  153  156 1   
   157  153  162 1   
   158  154  155 2   
   159  154  167 1   
   160  156  157 1   
   161  156  163 1   
   162  156  164 1   
   163  157  158 1   
   164  157  165 1   
   165  157  166 1   
   166  158  159 1   
   167  158  160 1   
   168  167  168 1   
   169  167  172 1   
   170  168  169 1   
   171  168  170 1   
   172  168  171 1   
   173  174  175 1   
   174  174  176 1   
   175  177  178 1   
   176  177  179 1   
   177  180  181 1   
   178  180  182 1   
@<TRIPOS>SUBSTRUCTURE
     1 MOL         1 TEMP              0 ****  ****    0 ROOT
