@<TRIPOS>MOLECULE
MOL
  179   176     1     0     0
SMALL
resp


@<TRIPOS>ATOM
      1 C1         -0.2660   -4.3760    6.2850 c3        1 MOL     -0.356804
      2 C2         -0.1140   -3.9940    4.8820 c         1 MOL      0.824643
      3 O1         -0.8410   -4.4670    4.0430 o         1 MOL     -0.604814
      4 H1         -0.6240   -5.4040    6.3440 hc        1 MOL      0.089396
      5 H2          0.6960   -4.2970    6.7900 hc        1 MOL      0.089396
      6 H3         -0.9850   -3.7130    6.7660 hc        1 MOL      0.089396
      7 N1          0.9210   -3.1710    4.4950 n         1 MOL     -0.664149
      8 C3          1.1460   -2.7980    3.0930 c3        1 MOL     -0.010977
      9 C4          1.3220   -4.0610    2.2450 c         1 MOL      0.693929
     10 O2          2.0490   -4.9170    2.6530 o         1 MOL     -0.580302
     11 C5          2.4430   -1.8960    3.0280 c3        1 MOL     -0.252650
     12 C6          2.7010   -1.3680    1.6010 c         1 MOL      0.682915
     13 O3          2.7080   -2.1570    0.6120 o         1 MOL     -0.705052
     14 O4          2.9940   -0.1500    1.4270 o         1 MOL     -0.705052
     15 H4          1.5390   -2.7960    5.1980 hn        1 MOL      0.334675
     16 H5          0.2990   -2.2790    2.6380 h1        1 MOL      0.096797
     17 H6          3.2700   -2.5200    3.3620 hc        1 MOL      0.097412
     18 H7          2.2540   -1.0990    3.7380 hc        1 MOL      0.097412
     19 N2          0.6640   -4.2370    1.1080 n         1 MOL     -0.288394
     20 C7          0.6000   -5.3560    0.1310 c3        1 MOL     -0.061147
     21 C8          1.8460   -5.6090   -0.5230 c         1 MOL      0.581429
     22 O5          2.0650   -6.7580   -0.9230 o         1 MOL     -0.600321
     23 C9         -0.4210   -5.1130   -0.9910 c3        1 MOL     -0.435538
     24 C10        -1.7530   -5.7560   -0.6400 c3        1 MOL      0.161926
     25 C11        -2.6040   -5.7380   -1.8450 c3        1 MOL     -0.188867
     26 C12        -2.1300   -6.8980   -2.7300 c3        1 MOL      0.113541
     27 N3         -2.9940   -7.1020   -3.9080 n4        1 MOL     -0.346677
     28 H8         -0.0270   -3.5420    0.8590 hn        1 MOL      0.170309
     29 H9          0.4330   -6.3040    0.6450 h1        1 MOL      0.104611
     30 H10        -0.0580   -5.5000   -1.9460 hc        1 MOL      0.145001
     31 H11        -0.5570   -4.0290   -1.0550 hc        1 MOL      0.145001
     32 H12        -2.2770   -5.2260    0.1520 hc        1 MOL      0.038596
     33 H13        -1.7170   -6.8120   -0.3710 hc        1 MOL      0.038596
     34 H14        -2.5560   -4.8280   -2.4340 hc        1 MOL      0.064175
     35 H15        -3.6550   -5.8630   -1.5810 hc        1 MOL      0.064175
     36 H16        -2.1880   -7.8590   -2.2220 hx        1 MOL      0.072740
     37 H17        -1.1170   -6.7220   -3.0830 hx        1 MOL      0.072740
     38 H18        -3.0400   -6.2110   -4.3870 hn        1 MOL      0.319817
     39 H19        -2.5460   -7.7700   -4.5120 hn        1 MOL      0.319817
     40 H20        -3.9590   -7.2940   -3.6690 hn        1 MOL      0.319817
     41 N4          2.7000   -4.6030   -0.7660 n         1 MOL     -0.243410
     42 C13         3.9310   -4.6890   -1.5290 c3        1 MOL     -0.149120
     43 C14         5.2750   -4.2130   -0.9270 c         1 MOL      0.468721
     44 O6          6.4270   -4.4730   -1.3850 o         1 MOL     -0.531515
     45 C15         3.7560   -4.2310   -3.0040 c3        1 MOL      0.112843
     46 C16         3.3310   -2.8040   -3.1990 c         1 MOL      0.692134
     47 O7          3.1330   -2.4140   -4.4020 o         1 MOL     -0.743158
     48 O8          3.3270   -1.9950   -2.2510 o         1 MOL     -0.743158
     49 H21         2.5730   -3.7280   -0.2910 hn        1 MOL      0.097750
     50 H22         4.0820   -5.7670   -1.5710 h1        1 MOL      0.115935
     51 H23         2.9920   -4.8670   -3.4510 hc        1 MOL     -0.026079
     52 H24         4.6600   -4.4450   -3.5770 hc        1 MOL     -0.026079
     53 N5          5.1590   -3.5210    0.2300 n         1 MOL     -0.279073
     54 C17         6.3540   -2.9750    0.9340 c3        1 MOL     -0.073169
     55 C18         6.8770   -1.5620    0.3870 c         1 MOL      0.402082
     56 O9          8.0320   -1.1730    0.6390 o         1 MOL     -0.535306
     57 H25         4.2280   -3.3100    0.5680 hn        1 MOL      0.247560
     58 H26         7.1680   -3.6990    0.8710 h1        1 MOL      0.085795
     59 H27         6.0310   -2.9780    1.9770 h1        1 MOL      0.085795
     60 N6          6.0460   -0.8050   -0.3500 n         1 MOL     -0.131899
     61 C19         6.4870    0.4450   -0.9160 c3        1 MOL     -0.026457
     62 C20         6.3510    1.6450    0.0270 c         1 MOL      0.378671
     63 O10         6.9720    2.6190   -0.2640 o         1 MOL     -0.461379
     64 C21         5.8410    0.6790   -2.2520 c3        1 MOL     -0.366426
     65 C22         4.5330    1.3650   -2.1790 c         1 MOL      0.741498
     66 N7          4.1370    2.0910   -3.1650 n         1 MOL     -0.785152
     67 O11         3.7060    1.0730   -1.3340 o         1 MOL     -0.696352
     68 H28         5.1410   -1.2050   -0.5770 hn        1 MOL      0.231812
     69 H29         7.5520    0.3610   -1.1510 h1        1 MOL      0.139199
     70 H30         5.6500   -0.2780   -2.7310 hc        1 MOL      0.132738
     71 H31         6.4760    1.3140   -2.8850 hc        1 MOL      0.132738
     72 H32         4.8560    2.3610   -3.8210 hn        1 MOL      0.376826
     73 H33         3.1840    2.4270   -3.1450 hn        1 MOL      0.376826
     74 N8          5.6250    1.5810    1.1730 n         1 MOL     -0.233901
     75 C23         5.5380    2.7450    2.1220 c3        1 MOL     -0.255129
     76 C24         4.3060    3.6490    1.8630 c         1 MOL      0.673825
     77 O12         4.1330    4.5450    2.7150 o         1 MOL     -0.610901
     78 H34         5.0970    0.7560    1.4190 hn        1 MOL      0.218123
     79 H35         6.4320    3.3640    2.1510 h1        1 MOL      0.135557
     80 H36         5.4490    2.3750    3.1440 h1        1 MOL      0.135557
     81 N9          3.4080    3.2870    0.9930 n         1 MOL     -0.543061
     82 C25         2.1060    4.0370    0.8080 c3        1 MOL      0.186386
     83 C26         0.8920    3.1600    0.6990 c         1 MOL      0.616023
     84 O13         1.0060    2.0220    0.1700 o         1 MOL     -0.574438
     85 C27         2.3070    4.9120   -0.4680 c3        1 MOL     -0.095575
     86 C28         3.4630    5.8770   -0.4320 ca        1 MOL      0.019552
     87 C29         4.6590    5.4650   -1.0480 ca        1 MOL     -0.091771
     88 C30         3.2630    7.1790   -0.0070 ca        1 MOL     -0.091771
     89 C31         5.7140    6.3590   -1.2380 ca        1 MOL     -0.337081
     90 C32         4.3230    8.1130   -0.2650 ca        1 MOL     -0.337081
     91 C33         5.5640    7.7030   -0.8310 ca        1 MOL      0.390767
     92 O14         6.6500    8.4840   -1.0350 oh        1 MOL     -0.458611
     93 H37         3.5600    2.4420    0.4570 hn        1 MOL      0.380011
     94 H38         1.9860    4.7720    1.6070 h1        1 MOL      0.042181
     95 H39         1.4500    5.5760   -0.4880 hc        1 MOL      0.017577
     96 H40         2.3280    4.2960   -1.3750 hc        1 MOL      0.017577
     97 H41         4.7880    4.4520   -1.3980 ha        1 MOL      0.124037
     98 H42         2.3340    7.5680    0.3780 ha        1 MOL      0.124037
     99 H43         6.7080    6.0360   -1.5050 ha        1 MOL      0.155107
    100 H44         4.1690    9.1470   -0.0070 ha        1 MOL      0.155107
    101 H45         6.5340    9.3790   -0.7000 ho        1 MOL      0.347881
    102 N10        -0.2490    3.6100    1.1770 n         1 MOL     -0.541934
    103 C34        -1.4810    2.7630    1.2610 c3        1 MOL     -0.181254
    104 C35        -2.6530    3.6510    0.8670 c         1 MOL      0.538609
    105 O15        -2.8740    4.6980    1.4800 o         1 MOL     -0.521794
    106 C36        -1.7040    2.1250    2.6950 c3        1 MOL     -0.042543
    107 C37        -0.7250    0.9950    2.8130 c3        1 MOL      0.377510
    108 C38        -3.2190    1.6460    2.8690 c3        1 MOL     -0.050742
    109 C39        -0.6250    0.4290    4.2150 c3        1 MOL     -0.179932
    110 H46        -0.3910    4.4680    1.6860 hn        1 MOL      0.338171
    111 H47        -1.4770    1.9430    0.5460 h1        1 MOL      0.192070
    112 H48        -1.4830    2.8460    3.4920 hc        1 MOL      0.051731
    113 H49         0.3110    1.1920    2.5400 hc        1 MOL     -0.084167
    114 H50        -1.0620    0.1200    2.2510 hc        1 MOL     -0.084167
    115 H51        -3.5350    0.9850    2.0530 hc        1 MOL      0.006693
    116 H52        -3.4320    1.1740    3.8330 hc        1 MOL      0.006693
    117 H53        -3.8340    2.5430    2.9260 hc        1 MOL      0.006693
    118 H54        -0.5600    1.2520    4.9240 hc        1 MOL      0.019722
    119 H55        -1.5000   -0.1820    4.4490 hc        1 MOL      0.019722
    120 H56         0.2130   -0.2580    4.2620 hc        1 MOL      0.019722
    121 N11        -3.4270    3.3160   -0.1900 n         1 MOL     -0.279283
    122 C40        -4.7120    4.0290   -0.4550 c3        1 MOL      0.064589
    123 C41        -5.9850    3.2010   -0.1580 c         1 MOL      0.517918
    124 O16        -5.8310    2.0490    0.1920 o         1 MOL     -0.422920
    125 C42        -4.7640    4.6470   -1.8530 c3        1 MOL      0.036494
    126 O17        -4.6020    3.6230   -2.7770 oh        1 MOL     -0.577099
    127 H57        -3.2460    2.4720   -0.7050 hn        1 MOL      0.208279
    128 H58        -4.8010    4.8910    0.2180 h1        1 MOL      0.043487
    129 H59        -3.9240    5.3270   -1.8420 h1        1 MOL      0.040686
    130 H60        -5.7330    5.1370   -2.0150 h1        1 MOL      0.040686
    131 H61        -4.3870    3.9600   -3.6440 ho        1 MOL      0.418810
    132 N12        -7.1670    3.7670   -0.2620 n         1 MOL     -0.454935
    133 C43        -8.3370    3.1580    0.3140 c3        1 MOL      0.028612
    134 C44        -8.8020    1.7580   -0.2640 c         1 MOL      0.454205
    135 O18        -9.4750    0.9190    0.3620 o         1 MOL     -0.496593
    136 C45        -9.5490    4.0960    0.1150 c3        1 MOL     -0.226589
    137 H62        -7.2570    4.6410   -0.7430 hn        1 MOL      0.320306
    138 H63        -8.1990    2.9600    1.3810 h1        1 MOL      0.105673
    139 H64       -10.3250    3.9380    0.8560 hc        1 MOL      0.078479
    140 H65        -9.2940    5.1580    0.1420 hc        1 MOL      0.078479
    141 H66        -9.8750    4.0110   -0.9240 hc        1 MOL      0.078479
    142 N13        -8.3290    1.4760   -1.5150 n         1 MOL     -0.355232
    143 C46        -8.5370    0.1330   -2.0350 c3        1 MOL      0.006841
    144 C47        -7.5120   -0.8620   -1.5100 c         1 MOL      0.508815
    145 O19        -7.9490   -1.9830   -1.3740 o         1 MOL     -0.518608
    146 C48        -8.5740    0.3750   -3.5930 c3        1 MOL     -0.227425
    147 H67        -7.7540    2.1430   -1.9980 hn        1 MOL      0.253139
    148 H68        -9.5460   -0.1410   -1.7030 h1        1 MOL      0.143906
    149 H69        -7.6490    0.8250   -3.9430 hc        1 MOL      0.067319
    150 H70        -8.7620   -0.5290   -4.1750 hc        1 MOL      0.067319
    151 H71        -9.4530    0.9810   -3.8160 hc        1 MOL      0.067319
    152 N14        -6.2590   -0.5340   -1.1320 n         1 MOL     -0.358625
    153 C49        -5.3410   -1.3380   -0.2350 c3        1 MOL     -0.143064
    154 C50        -5.8290   -1.5110    1.2050 c         1 MOL      0.391135
    155 O20        -5.8020   -2.7090    1.7700 o         1 MOL     -0.551292
    156 C51        -3.9210   -0.6680   -0.3770 c3        1 MOL     -0.111789
    157 C52        -2.7430   -1.4560    0.2290 c3        1 MOL      0.227100
    158 C53        -1.3460   -1.0210   -0.1770 c         1 MOL      0.449280
    159 O21        -1.1940    0.0240   -0.8760 o         1 MOL     -0.673939
    160 O22        -0.3900   -1.7270    0.1680 o         1 MOL     -0.673939
    161 H72        -5.9760    0.4190   -1.2680 hn        1 MOL      0.222445
    162 H73        -5.3080   -2.3320   -0.6840 h1        1 MOL      0.119857
    163 H74        -3.9950    0.3610   -0.0320 hc        1 MOL      0.029233
    164 H75        -3.7550   -0.5390   -1.4420 hc        1 MOL      0.029233
    165 H76        -2.8550   -2.5140   -0.0360 hc        1 MOL      0.000774
    166 H77        -2.7830   -1.4620    1.3130 hc        1 MOL      0.000774
    167 N15        -6.3510   -0.4640    1.7770 n         1 MOL      0.041759
    168 C54        -6.8870   -0.5360    3.1170 c3        1 MOL     -0.243451
    169 H78        -6.8130   -1.5610    3.4820 h1        1 MOL      0.099031
    170 H79        -6.3200    0.1250    3.7720 h1        1 MOL      0.099031
    171 H80        -7.9330   -0.2290    3.1070 h1        1 MOL      0.099031
    172 H81        -6.4750    0.4030    1.2810 hn        1 MOL      0.110489
    173 Ca1         1.5450   -0.3860   -0.9970 Ca        1 MOL      1.761833
    174 O23         1.1480    1.5260   -2.9160 oh        1 MOL     -0.815662
    175 H82         1.5240    1.2510   -3.7500 ho        1 MOL      0.401441
    176 H83         0.3340    1.9670   -3.1560 ho        1 MOL      0.401441
    177 O24         0.1510   -1.5280   -3.0700 oh        1 MOL     -0.815662
    178 H84         0.0030   -2.3660   -3.4910 ho        1 MOL      0.401441
    179 H85        -0.1050   -0.8720   -3.7250 ho        1 MOL      0.401441
@<TRIPOS>BOND
     1    1    2 1   
     2    1    4 1   
     3    1    5 1   
     4    1    6 1   
     5    2    3 2   
     6    2    7 1   
     7    7    8 1   
     8    7   15 1   
     9    8    9 1   
    10    8   11 1   
    11    8   16 1   
    12    9   10 2   
    13    9   19 1   
    14   11   12 1   
    15   11   17 1   
    16   11   18 1   
    17   12   13 1   
    18   12   14 1   
    19   19   20 1   
    20   19   28 1   
    21   20   21 1   
    22   20   23 1   
    23   20   29 1   
    24   21   22 2   
    25   21   41 1   
    26   23   24 1   
    27   23   30 1   
    28   23   31 1   
    29   24   25 1   
    30   24   32 1   
    31   24   33 1   
    32   25   26 1   
    33   25   34 1   
    34   25   35 1   
    35   26   27 1   
    36   26   36 1   
    37   26   37 1   
    38   27   38 1   
    39   27   39 1   
    40   27   40 1   
    41   41   42 1   
    42   41   49 1   
    43   42   43 1   
    44   42   45 1   
    45   42   50 1   
    46   43   44 2   
    47   43   53 1   
    48   45   46 1   
    49   45   51 1   
    50   45   52 1   
    51   46   47 1   
    52   46   48 1   
    53   53   54 1   
    54   53   57 1   
    55   54   55 1   
    56   54   58 1   
    57   54   59 1   
    58   55   56 2   
    59   55   60 1   
    60   60   61 1   
    61   60   68 1   
    62   61   62 1   
    63   61   64 1   
    64   61   69 1   
    65   62   63 2   
    66   62   74 1   
    67   64   65 1   
    68   64   70 1   
    69   64   71 1   
    70   65   66 1   
    71   65   67 2   
    72   66   72 1   
    73   66   73 1   
    74   74   75 1   
    75   74   78 1   
    76   75   76 1   
    77   75   79 1   
    78   75   80 1   
    79   76   77 2   
    80   76   81 1   
    81   81   82 1   
    82   81   93 1   
    83   82   83 1   
    84   82   85 1   
    85   82   94 1   
    86   83   84 2   
    87   83  102 1   
    88   85   86 1   
    89   85   95 1   
    90   85   96 1   
    91   86   87 ar  
    92   86   88 ar  
    93   87   89 ar  
    94   87   97 1   
    95   88   90 ar  
    96   88   98 1   
    97   89   91 ar  
    98   89   99 1   
    99   90   91 ar  
   100   90  100 1   
   101   91   92 1   
   102   92  101 1   
   103  102  103 1   
   104  102  110 1   
   105  103  104 1   
   106  103  106 1   
   107  103  111 1   
   108  104  105 2   
   109  104  121 1   
   110  106  107 1   
   111  106  108 1   
   112  106  112 1   
   113  107  109 1   
   114  107  113 1   
   115  107  114 1   
   116  108  115 1   
   117  108  116 1   
   118  108  117 1   
   119  109  118 1   
   120  109  119 1   
   121  109  120 1   
   122  121  122 1   
   123  121  127 1   
   124  122  123 1   
   125  122  125 1   
   126  122  128 1   
   127  123  124 2   
   128  123  132 1   
   129  125  126 1   
   130  125  129 1   
   131  125  130 1   
   132  126  131 1   
   133  132  133 1   
   134  132  137 1   
   135  133  134 1   
   136  133  136 1   
   137  133  138 1   
   138  134  135 2   
   139  134  142 1   
   140  136  139 1   
   141  136  140 1   
   142  136  141 1   
   143  142  143 1   
   144  142  147 1   
   145  143  144 1   
   146  143  146 1   
   147  143  148 1   
   148  144  145 2   
   149  144  152 1   
   150  146  149 1   
   151  146  150 1   
   152  146  151 1   
   153  152  153 1   
   154  152  161 1   
   155  153  154 1   
   156  153  156 1   
   157  153  162 1   
   158  154  155 2   
   159  154  167 1   
   160  156  157 1   
   161  156  163 1   
   162  156  164 1   
   163  157  158 1   
   164  157  165 1   
   165  157  166 1   
   166  158  159 1   
   167  158  160 1   
   168  167  168 1   
   169  167  172 1   
   170  168  169 1   
   171  168  170 1   
   172  168  171 1   
   173  174  175 1   
   174  174  176 1   
   175  177  178 1   
   176  177  179 1   
@<TRIPOS>SUBSTRUCTURE
     1 MOL         1 TEMP              0 ****  ****    0 ROOT
