@<TRIPOS>MOLECULE
MOL
  183   181     1     0     0
SMALL
resp


@<TRIPOS>ATOM
      1 C1         -0.7880    2.5690    6.2450 c3        1 MOL     -0.346738
      2 C2         -1.1480    2.2620    4.7720 c         1 MOL      0.775786
      3 O1         -0.3690    2.5410    3.8910 o         1 MOL     -0.572796
      4 H1          0.1170    2.0270    6.5170 hc        1 MOL      0.076900
      5 H2         -0.6210    3.6390    6.3640 hc        1 MOL      0.076900
      6 H3         -1.6070    2.2540    6.8930 hc        1 MOL      0.076900
      7 N1         -2.3190    1.7400    4.4570 n         1 MOL     -0.719864
      8 C3         -2.7350    1.4540    3.0350 c3        1 MOL      0.438360
      9 C4         -3.2360    2.8620    2.4890 c         1 MOL      0.385749
     10 O2         -4.2730    3.4080    2.9420 o         1 MOL     -0.570236
     11 C5         -3.8330    0.4280    3.0190 c3        1 MOL     -0.486406
     12 C6         -4.6060    0.2890    1.7000 c         1 MOL      0.930937
     13 O3         -5.8090   -0.1150    1.7230 o         1 MOL     -0.723278
     14 O4         -4.0270    0.6500    0.6170 o         1 MOL     -0.723278
     15 H4         -2.8590    1.4880    5.2690 hn        1 MOL      0.332893
     16 H5         -1.8290    1.0720    2.5530 h1        1 MOL      0.019244
     17 H6         -4.5460    0.6920    3.8010 hc        1 MOL      0.084268
     18 H7         -3.4020   -0.5340    3.3200 hc        1 MOL      0.084268
     19 N2         -2.6420    3.3380    1.4010 n         1 MOL     -0.058003
     20 C7         -2.8280    4.7570    0.9130 c3        1 MOL      0.025144
     21 C8         -3.7980    4.7920   -0.3200 c         1 MOL      0.345937
     22 O5         -4.4740    5.7700   -0.5250 o         1 MOL     -0.559406
     23 C9         -1.4760    5.4160    0.7030 c3        1 MOL      0.275058
     24 C10        -0.7300    5.6340    1.9710 c3        1 MOL      0.094050
     25 C11        -1.5080    6.8190   -0.0110 c3        1 MOL     -0.433391
     26 C12         0.8220    5.5300    2.0090 c3        1 MOL     -0.011745
     27 H8         -2.0280    2.6980    0.9260 hn        1 MOL     -0.061229
     28 H9         -3.3240    5.3420    1.6830 h1        1 MOL      0.038505
     29 H10        -0.8920    4.6940    0.1320 hc        1 MOL     -0.008537
     30 H11        -1.1140    5.0290    2.7970 hc        1 MOL     -0.056437
     31 H12        -1.0320    6.6160    2.3240 hc        1 MOL     -0.056437
     32 H13        -2.1690    7.4990    0.5400 hc        1 MOL      0.092888
     33 H14        -0.4960    7.2290   -0.0550 hc        1 MOL      0.092888
     34 H15        -1.8500    6.6320   -1.0270 hc        1 MOL      0.092888
     35 H16         1.3230    4.5630    1.9600 hc        1 MOL     -0.003736
     36 H17         1.1830    6.2750    1.2960 hc        1 MOL     -0.003736
     37 H18         1.1360    5.8660    2.9910 hc        1 MOL     -0.003736
     38 N3         -3.8040    3.7380   -1.1560 n         1 MOL     -0.118163
     39 C13        -4.6020    3.7710   -2.4590 c3        1 MOL      0.017516
     40 C14        -5.8420    2.8920   -2.3810 c         1 MOL      0.388458
     41 O6         -6.5080    2.8730   -3.4150 o         1 MOL     -0.510704
     42 C15        -3.6370    3.3220   -3.6220 c3        1 MOL     -0.289584
     43 C16        -2.6840    2.2430   -3.2360 c         1 MOL      0.779843
     44 O7         -1.4780    2.3600   -3.5170 o         1 MOL     -0.702826
     45 O8         -3.1070    1.2750   -2.5260 o         1 MOL     -0.702826
     46 H19        -3.2030    2.9420   -0.9960 hn        1 MOL      0.154792
     47 H20        -4.9770    4.7730   -2.6620 h1        1 MOL      0.094248
     48 H21        -3.1140    4.1990   -4.0070 hc        1 MOL      0.071987
     49 H22        -4.2120    2.8540   -4.4180 hc        1 MOL      0.071987
     50 N4         -6.0990    2.3050   -1.1720 n         1 MOL     -0.062234
     51 C17        -7.3580    1.8340   -0.8110 c3        1 MOL     -0.330593
     52 C18        -7.7260    0.5430   -1.5930 c         1 MOL      0.761737
     53 O9         -8.7030    0.6100   -2.3480 o         1 MOL     -0.626482
     54 H23        -5.3860    2.3120   -0.4590 hn        1 MOL      0.183259
     55 H24        -8.1010    2.6270   -0.9310 h1        1 MOL      0.101405
     56 H25        -7.4360    1.5970    0.2530 h1        1 MOL      0.101405
     57 N5         -7.1590   -0.6050   -1.2550 n         1 MOL     -0.544708
     58 C19        -7.3710   -1.8960   -1.9330 c3        1 MOL      0.138295
     59 C20        -7.4050   -3.0640   -0.9550 c         1 MOL      0.543607
     60 O10        -7.6660   -4.1460   -1.4360 o         1 MOL     -0.569272
     61 C21        -6.2500   -2.1420   -2.9860 c3        1 MOL     -0.089135
     62 C22        -4.7790   -1.9400   -2.4500 c         1 MOL      0.721883
     63 O11        -3.9010   -1.6520   -3.3450 o         1 MOL     -0.729888
     64 O12        -4.5360   -1.9550   -1.2570 o         1 MOL     -0.729888
     65 H26        -6.3900   -0.4700   -0.6200 hn        1 MOL      0.143199
     66 H27        -8.3620   -1.9100   -2.3980 h1        1 MOL      0.052986
     67 H28        -6.4370   -1.4020   -3.7590 hc        1 MOL      0.023506
     68 H29        -6.4080   -3.0980   -3.4780 hc        1 MOL      0.023506
     69 N6         -7.2180   -2.8930    0.3710 n         1 MOL     -0.488639
     70 C23        -7.0640   -4.0320    1.3100 c3        1 MOL      0.063593
     71 C24        -5.6820   -4.4810    1.7900 c         1 MOL      0.451756
     72 O13        -5.5680   -5.3610    2.6750 o         1 MOL     -0.583277
     73 H30        -7.0220   -1.9600    0.7140 hn        1 MOL      0.335248
     74 H31        -7.5820   -4.9300    0.9740 h1        1 MOL      0.043314
     75 H32        -7.5560   -3.7860    2.2530 h1        1 MOL      0.043314
     76 N7         -4.6570   -3.9240    1.1350 n         1 MOL     -0.177053
     77 C25        -3.2820   -4.2710    1.4100 c3        1 MOL     -0.039852
     78 C26        -2.3210   -3.0810    1.5620 c         1 MOL      0.750715
     79 O14        -2.4810   -1.9350    1.2070 o         1 MOL     -0.795439
     80 C27        -2.7920   -5.2680    0.3430 c3        1 MOL      0.017211
     81 C28        -2.9130   -4.9940   -1.0740 c3        1 MOL     -0.202574
     82 C29        -1.8270   -4.2660   -1.7890 c         1 MOL      0.580857
     83 N8         -1.2520   -4.7750   -2.8450 n         1 MOL     -0.667698
     84 O15        -1.4870   -3.0970   -1.4250 o         1 MOL     -0.562594
     85 H33        -4.8870   -3.2170    0.4660 hn        1 MOL      0.211397
     86 H34        -3.2270   -4.8520    2.3250 h1        1 MOL      0.051036
     87 H35        -3.3040   -6.2130    0.5320 hc        1 MOL      0.014530
     88 H36        -1.7450   -5.5110    0.5480 hc        1 MOL      0.014530
     89 H37        -3.8980   -4.5760   -1.2870 hc        1 MOL      0.067658
     90 H38        -2.9660   -6.0250   -1.4190 hc        1 MOL      0.067658
     91 H39        -1.5780   -5.6300   -3.2610 hn        1 MOL      0.332186
     92 H40        -0.4420   -4.3140   -3.2270 hn        1 MOL      0.332186
     93 N9         -1.1400   -3.4450    2.1000 n         1 MOL     -0.534273
     94 C30         0.0010   -2.5270    2.3480 c3        1 MOL      0.070539
     95 C31         1.2150   -2.9660    1.5190 c         1 MOL      0.434779
     96 O16         1.7330   -4.0560    1.8880 o         1 MOL     -0.580110
     97 C32         0.3250   -2.5020    3.8240 c3        1 MOL      0.098221
     98 C33         1.6140   -1.6810    4.1930 c3        1 MOL     -0.245243
     99 C34        -0.8140   -1.7540    4.5920 c3        1 MOL     -0.245243
    100 H41        -0.9730   -4.4330    2.1750 hn        1 MOL      0.293054
    101 H42        -0.1250   -1.5360    1.9220 h1        1 MOL      0.200147
    102 H43         0.4230   -3.5350    4.1580 hc        1 MOL      0.020658
    103 H44         1.8760   -1.5840    5.2460 hc        1 MOL      0.052719
    104 H45         2.5170   -2.2380    3.9390 hc        1 MOL      0.052719
    105 H46         1.6450   -0.7160    3.6880 hc        1 MOL      0.052719
    106 H47        -1.7460   -2.2460    4.2880 hc        1 MOL      0.052719
    107 H48        -0.7020   -1.8760    5.6750 hc        1 MOL      0.052719
    108 H49        -0.9480   -0.6910    4.4270 hc        1 MOL      0.052719
    109 N10         1.5710   -2.2990    0.4240 n         1 MOL     -0.254326
    110 C35         2.7240   -2.5820   -0.4510 c3        1 MOL      0.101407
    111 C36         4.0110   -2.0310    0.1240 c         1 MOL      0.338795
    112 O17         3.9750   -1.0290    0.8060 o         1 MOL     -0.290167
    113 C37         2.4240   -2.0190   -1.8550 c3        1 MOL     -0.329085
    114 C38         3.5110   -2.2720   -2.9500 c         1 MOL      0.698387
    115 N11         3.0900   -3.0880   -3.9160 n         1 MOL     -0.869130
    116 O18         4.6400   -1.8510   -2.9100 o         1 MOL     -0.516559
    117 H50         1.0710   -1.4830    0.1310 hn        1 MOL      0.166678
    118 H51         2.8330   -3.6690   -0.4770 h1        1 MOL      0.030055
    119 H52         2.3210   -0.9480   -1.6910 hc        1 MOL      0.123326
    120 H53         1.4470   -2.3970   -2.1630 hc        1 MOL      0.123326
    121 H54         2.0960   -3.2430   -3.9790 hn        1 MOL      0.392475
    122 H55         3.6970   -3.1830   -4.7120 hn        1 MOL      0.392475
    123 N12         5.2010   -2.5270   -0.1780 n         1 MOL     -0.430637
    124 C39         6.5200   -1.8450    0.1050 c3        1 MOL      0.109453
    125 C40         6.5470   -0.3130    0.0280 c         1 MOL      0.697753
    126 O19         7.0220    0.3090    0.9500 o         1 MOL     -0.597470
    127 C41         7.6180   -2.3640   -0.8540 c3        1 MOL     -0.190661
    128 C42         9.0430   -1.9410   -0.4620 ca        1 MOL     -0.013830
    129 C43         9.7570   -2.7290    0.4980 ca        1 MOL     -0.140363
    130 C44         9.5580   -0.7510   -0.9290 ca        1 MOL     -0.140363
    131 C45        11.1100   -2.4760    0.7690 ca        1 MOL     -0.152482
    132 C46        10.9300   -0.4800   -0.6420 ca        1 MOL     -0.152482
    133 C47        11.7540   -1.4060    0.0690 ca        1 MOL      0.191762
    134 O20        13.0780   -1.2070    0.4110 oh        1 MOL     -0.503289
    135 H56         5.2210   -3.4050   -0.6880 hn        1 MOL      0.273511
    136 H57         6.8210   -2.1620    1.1070 h1        1 MOL      0.057217
    137 H58         7.5030   -2.0280   -1.8860 hc        1 MOL      0.074696
    138 H59         7.4560   -3.4450   -0.8470 hc        1 MOL      0.074696
    139 H60         9.3110   -3.6610    0.8000 ha        1 MOL      0.113765
    140 H61         8.9190   -0.0040   -1.3680 ha        1 MOL      0.113765
    141 H62        11.6800   -3.1790    1.3720 ha        1 MOL      0.114692
    142 H63        11.3770    0.2750   -1.2620 ha        1 MOL      0.114692
    143 H64        13.3740   -0.3310    0.1410 ho        1 MOL      0.380829
    144 N13         6.0290    0.3440   -1.0570 n         1 MOL     -0.138659
    145 C48         6.0350    1.7650   -1.2160 c3        1 MOL     -0.232867
    146 C49         5.1000    2.4640   -0.2070 c         1 MOL      0.330608
    147 O21         5.2210    3.6680   -0.0050 o         1 MOL     -0.543758
    148 C50         5.4890    2.0860   -2.5910 c3        1 MOL      0.280836
    149 C51         6.3700    1.6480   -3.7680 c3        1 MOL     -0.389245
    150 C52         6.0750    2.5300   -4.9410 c         1 MOL      0.755457
    151 O22         5.4870    2.0400   -5.9670 o         1 MOL     -0.747730
    152 O23         6.4030    3.7220   -4.9430 o         1 MOL     -0.747730
    153 H65         5.6130   -0.2000   -1.8040 hn        1 MOL      0.129871
    154 H66         7.0700    2.0830   -1.0600 h1        1 MOL      0.137458
    155 H67         5.4100    3.1740   -2.6550 hc        1 MOL     -0.004898
    156 H68         4.4520    1.7600   -2.6570 hc        1 MOL     -0.004898
    157 H69         6.1070    0.6220   -4.0400 hc        1 MOL      0.046382
    158 H70         7.4230    1.7550   -3.4970 hc        1 MOL      0.046382
    159 N14         4.2420    1.7730    0.4570 n         1 MOL     -0.004578
    160 C53         3.3700    2.2180    1.6010 c3        1 MOL     -0.014478
    161 C54         4.0470    1.8700    2.9200 c         1 MOL      0.409886
    162 O24         4.0640    2.5980    3.9320 o         1 MOL     -0.577940
    163 C55         1.9680    1.5190    1.5490 c3        1 MOL      0.418137
    164 C56         1.3640    1.9840    0.2230 c3        1 MOL      0.018203
    165 C57         0.0410    1.1610   -0.0700 c         1 MOL      0.610024
    166 O25        -0.9770    1.7760   -0.4300 o         1 MOL     -0.633802
    167 O26        -0.0070   -0.0370    0.0680 o         1 MOL     -0.633802
    168 H71         4.3780    0.7830    0.3210 hn        1 MOL      0.007784
    169 H72         3.1940    3.2990    1.6310 h1        1 MOL      0.054517
    170 H73         1.3880    1.9120    2.3800 hc        1 MOL     -0.120405
    171 H74         1.9840    0.4350    1.5420 hc        1 MOL     -0.120405
    172 H75         2.0900    1.7430   -0.5500 hc        1 MOL     -0.054694
    173 H76         1.3310    3.0690    0.2940 hc        1 MOL     -0.054694
    174 N15         4.7150    0.7280    2.9850 n         1 MOL     -0.038913
    175 C58         5.4200    0.2060    4.2210 c3        1 MOL     -0.277956
    176 H77         6.1910   -0.5050    3.9260 h1        1 MOL      0.101391
    177 H78         5.8790    1.0370    4.7560 h1        1 MOL      0.101391
    178 H79         4.6980   -0.2900    4.8690 h1        1 MOL      0.101391
    179 H80         4.7600    0.1590    2.1560 hn        1 MOL      0.024576
    180 Ca1        -2.3440   -0.5930   -0.9930 Ca        1 MOL      1.757505
    181 O27        -0.2760   -0.1510   -2.9160 oh        1 MOL     -0.938770
    182 H81         0.6250   -0.0750   -3.2410 ho        1 MOL      0.424358
    183 H82        -0.6790    0.6890   -3.1280 ho        1 MOL      0.424358
@<TRIPOS>BOND
     1    1    2 1   
     2    1    4 1   
     3    1    5 1   
     4    1    6 1   
     5    2    3 2   
     6    2    7 1   
     7    7    8 1   
     8    7   15 1   
     9    8    9 1   
    10    8   11 1   
    11    8   16 1   
    12    9   10 2   
    13    9   19 1   
    14   11   12 1   
    15   11   17 1   
    16   11   18 1   
    17   12   13 1   
    18   12   14 1   
    19   19   20 1   
    20   19   27 1   
    21   20   21 1   
    22   20   23 1   
    23   20   28 1   
    24   21   22 2   
    25   21   38 1   
    26   23   24 1   
    27   23   25 1   
    28   23   29 1   
    29   24   26 1   
    30   24   30 1   
    31   24   31 1   
    32   25   32 1   
    33   25   33 1   
    34   25   34 1   
    35   26   35 1   
    36   26   36 1   
    37   26   37 1   
    38   38   39 1   
    39   38   46 1   
    40   39   40 1   
    41   39   42 1   
    42   39   47 1   
    43   40   41 2   
    44   40   50 1   
    45   42   43 1   
    46   42   48 1   
    47   42   49 1   
    48   43   44 1   
    49   43   45 1   
    50   50   51 1   
    51   50   54 1   
    52   51   52 1   
    53   51   55 1   
    54   51   56 1   
    55   52   53 2   
    56   52   57 1   
    57   57   58 1   
    58   57   65 1   
    59   58   59 1   
    60   58   61 1   
    61   58   66 1   
    62   59   60 2   
    63   59   69 1   
    64   61   62 1   
    65   61   67 1   
    66   61   68 1   
    67   62   63 1   
    68   62   64 1   
    69   69   70 1   
    70   69   73 1   
    71   70   71 1   
    72   70   74 1   
    73   70   75 1   
    74   71   72 2   
    75   71   76 1   
    76   76   77 1   
    77   76   85 1   
    78   77   78 1   
    79   77   80 1   
    80   77   86 1   
    81   78   79 2   
    82   78   93 1   
    83   80   81 1   
    84   80   87 1   
    85   80   88 1   
    86   81   82 1   
    87   81   89 1   
    88   81   90 1   
    89   82   83 1   
    90   82   84 2   
    91   83   91 1   
    92   83   92 1   
    93   93   94 1   
    94   93  100 1   
    95   94   95 1   
    96   94   97 1   
    97   94  101 1   
    98   95   96 2   
    99   95  109 1   
   100   97   98 1   
   101   97   99 1   
   102   97  102 1   
   103   98  103 1   
   104   98  104 1   
   105   98  105 1   
   106   99  106 1   
   107   99  107 1   
   108   99  108 1   
   109  109  110 1   
   110  109  117 1   
   111  110  111 1   
   112  110  113 1   
   113  110  118 1   
   114  111  112 2   
   115  111  123 1   
   116  113  114 1   
   117  113  119 1   
   118  113  120 1   
   119  114  115 1   
   120  114  116 2   
   121  115  121 1   
   122  115  122 1   
   123  123  124 1   
   124  123  135 1   
   125  124  125 1   
   126  124  127 1   
   127  124  136 1   
   128  125  126 2   
   129  125  144 1   
   130  127  128 1   
   131  127  137 1   
   132  127  138 1   
   133  128  129 ar  
   134  128  130 ar  
   135  129  131 ar  
   136  129  139 1   
   137  130  132 ar  
   138  130  140 1   
   139  131  133 ar  
   140  131  141 1   
   141  132  133 ar  
   142  132  142 1   
   143  133  134 1   
   144  134  143 1   
   145  144  145 1   
   146  144  153 1   
   147  145  146 1   
   148  145  148 1   
   149  145  154 1   
   150  146  147 2   
   151  146  159 1   
   152  148  149 1   
   153  148  155 1   
   154  148  156 1   
   155  149  150 1   
   156  149  157 1   
   157  149  158 1   
   158  150  151 1   
   159  150  152 1   
   160  159  160 1   
   161  159  168 1   
   162  160  161 1   
   163  160  163 1   
   164  160  169 1   
   165  161  162 2   
   166  161  174 1   
   167  163  164 1   
   168  163  170 1   
   169  163  171 1   
   170  164  165 1   
   171  164  172 1   
   172  164  173 1   
   173  165  166 1   
   174  165  167 1   
   175  174  175 1   
   176  174  179 1   
   177  175  176 1   
   178  175  177 1   
   179  175  178 1   
   180  181  182 1   
   181  181  183 1   
@<TRIPOS>SUBSTRUCTURE
     1 MOL         1 TEMP              0 ****  ****    0 ROOT
