@<TRIPOS>MOLECULE
MOL
  189   185     1     0     0
SMALL
resp


@<TRIPOS>ATOM
      1 C1         -0.7950    2.2310    6.2210 c3        1 MOL     -0.326323
      2 C2         -1.0470    1.6980    4.7950 c         1 MOL      0.744672
      3 O1         -0.1510    1.9250    3.9120 o         1 MOL     -0.646366
      4 H1          0.2780    2.2800    6.4060 hc        1 MOL      0.081863
      5 H2         -1.2250    3.2280    6.3180 hc        1 MOL      0.081863
      6 H3         -1.2580    1.5630    6.9460 hc        1 MOL      0.081863
      7 N1         -2.1540    1.1700    4.4410 n         1 MOL     -0.622124
      8 C3         -2.5060    1.2900    3.0070 c3        1 MOL      0.066537
      9 C4         -2.8860    2.7360    2.5340 c         1 MOL      0.535607
     10 O2         -3.7830    3.4230    3.0930 o         1 MOL     -0.555318
     11 C5         -3.6990    0.3180    2.6660 c3        1 MOL      0.022620
     12 C6         -4.4150    0.4900    1.2700 c         1 MOL      0.661008
     13 O3         -5.6320    0.6310    1.2470 o         1 MOL     -0.641098
     14 O4         -3.6350    0.3460    0.2920 o         1 MOL     -0.641098
     15 H4         -2.7820    0.7500    5.1090 hn        1 MOL      0.351362
     16 H5         -1.6650    0.9480    2.4070 h1        1 MOL      0.066524
     17 H6         -4.4650    0.4230    3.4420 hc        1 MOL     -0.030010
     18 H7         -3.3610   -0.7150    2.6370 hc        1 MOL     -0.030010
     19 N2         -2.2030    3.2720    1.5110 n         1 MOL     -0.348234
     20 C7         -2.4070    4.6560    1.0110 c3        1 MOL      0.024218
     21 C8         -3.2750    4.8290   -0.2310 c         1 MOL      0.621353
     22 O5         -3.8430    5.9680   -0.3610 o         1 MOL     -0.597577
     23 C9         -1.0460    5.3150    0.7150 c3        1 MOL     -0.036563
     24 C10        -0.3350    5.8450    2.0050 c3        1 MOL      0.115546
     25 C11         1.0390    6.5990    1.7650 c3        1 MOL     -0.179011
     26 C12         1.5550    6.9820    3.1560 c3        1 MOL      0.249631
     27 N3          2.8830    7.6330    3.0440 n4        1 MOL     -0.485212
     28 H8         -1.4730    2.7140    1.0860 hn        1 MOL      0.202607
     29 H9         -2.8870    5.3510    1.7090 h1        1 MOL      0.057710
     30 H10        -1.1220    6.1730    0.0500 hc        1 MOL      0.021380
     31 H11        -0.3920    4.6160    0.1990 hc        1 MOL      0.021380
     32 H12        -0.2500    5.0420    2.7370 hc        1 MOL      0.002362
     33 H13        -0.9450    6.6120    2.4680 hc        1 MOL      0.002362
     34 H14         1.0020    7.5740    1.2840 hc        1 MOL      0.049899
     35 H15         1.7000    5.8610    1.3170 hc        1 MOL      0.049899
     36 H16         1.5930    6.0670    3.7390 hx        1 MOL      0.036223
     37 H17         0.9220    7.6880    3.6940 hx        1 MOL      0.036223
     38 H18         3.2350    7.7900    3.9830 hn        1 MOL      0.350401
     39 H19         3.4950    6.9610    2.5940 hn        1 MOL      0.350401
     40 H20         2.8190    8.5110    2.5560 hn        1 MOL      0.350401
     41 N4         -3.4130    3.8030   -1.1360 n         1 MOL     -0.533693
     42 C13        -4.2270    3.8770   -2.3870 c3        1 MOL     -0.047467
     43 C14        -5.4040    2.9530   -2.5900 c         1 MOL      0.426475
     44 O6         -5.6980    2.4580   -3.6580 o         1 MOL     -0.449669
     45 C15        -3.2230    3.7730   -3.5330 c3        1 MOL     -0.090042
     46 C16        -2.2890    2.5900   -3.6110 c         1 MOL      0.806860
     47 O7         -1.2010    2.6680   -4.2210 o         1 MOL     -0.742792
     48 O8         -2.4650    1.6030   -2.8220 o         1 MOL     -0.742792
     49 H21        -2.7350    3.0580   -1.0350 hn        1 MOL      0.305006
     50 H22        -4.6040    4.9070   -2.4180 h1        1 MOL      0.120186
     51 H23        -2.6350    4.6930   -3.5090 hc        1 MOL      0.018033
     52 H24        -3.7430    3.7760   -4.4900 hc        1 MOL      0.018033
     53 N5         -6.0160    2.6230   -1.4740 n         1 MOL     -0.199894
     54 C17        -7.2640    1.9520   -1.3260 c3        1 MOL     -0.345647
     55 C18        -7.3300    0.6060   -2.1980 c         1 MOL      0.630443
     56 O9         -8.1350    0.4740   -3.0960 o         1 MOL     -0.560919
     57 H25        -5.6610    2.9630   -0.5860 hn        1 MOL      0.275706
     58 H26        -8.0240    2.6240   -1.7380 h1        1 MOL      0.131372
     59 H27        -7.4950    1.7590   -0.2840 h1        1 MOL      0.131372
     60 N6         -6.6500   -0.3860   -1.6260 n         1 MOL     -0.228966
     61 C19        -6.7900   -1.8270   -1.9390 c3        1 MOL      0.008951
     62 C20        -6.7280   -2.7420   -0.6790 c         1 MOL      0.473440
     63 O10        -7.0130   -3.9500   -0.7800 o         1 MOL     -0.521679
     64 C21        -5.7510   -2.2500   -3.0470 c3        1 MOL     -0.251837
     65 C22        -4.3830   -1.8650   -2.5000 c         1 MOL      0.827527
     66 O11        -3.6210   -1.3130   -3.2850 o         1 MOL     -0.710123
     67 O12        -3.9280   -2.1410   -1.4020 o         1 MOL     -0.710123
     68 H28        -6.0910   -0.2320   -0.7950 hn        1 MOL     -0.023863
     69 H29        -7.8200   -2.0100   -2.2630 h1        1 MOL      0.087413
     70 H30        -5.8170   -1.6420   -3.9450 hc        1 MOL      0.078422
     71 H31        -5.8930   -3.3250   -3.1930 hc        1 MOL      0.078422
     72 N7         -6.4960   -2.2070    0.5530 n         1 MOL     -0.367628
     73 C23        -6.2830   -3.0770    1.7180 c3        1 MOL     -0.131979
     74 C24        -5.0350   -3.8810    1.7670 c         1 MOL      0.490299
     75 O13        -5.0240   -4.8650    2.4390 o         1 MOL     -0.565342
     76 H32        -6.2380   -1.2310    0.6520 hn        1 MOL      0.320808
     77 H33        -7.0910   -3.8170    1.7490 h1        1 MOL      0.097676
     78 H34        -6.2490   -2.4590    2.6180 h1        1 MOL      0.097676
     79 N8         -3.9810   -3.5430    1.0190 n         1 MOL     -0.083706
     80 C25        -2.7090   -4.3510    1.0980 c3        1 MOL     -0.383903
     81 C26        -1.5210   -3.3670    1.0250 c         1 MOL      0.717806
     82 O14        -1.6640   -2.2650    0.4550 o         1 MOL     -0.702951
     83 C27        -2.7170   -5.3730   -0.0980 c3        1 MOL      0.471437
     84 C28        -3.7450   -6.5160   -0.1580 c3        1 MOL     -0.447463
     85 O15        -2.7310   -4.6440   -1.2960 oh        1 MOL     -0.599799
     86 H35        -4.0960   -2.8450    0.2940 hn        1 MOL      0.186698
     87 H36        -2.6210   -4.8900    2.0410 h1        1 MOL      0.130942
     88 H37        -1.7710   -5.9040   -0.0430 h1        1 MOL     -0.021287
     89 H38        -3.4870   -4.0720   -1.2010 ho        1 MOL      0.365893
     90 H39        -3.6150   -7.1990    0.6870 hc        1 MOL      0.118853
     91 H40        -4.7830   -6.1810   -0.1160 hc        1 MOL      0.118853
     92 H41        -3.7260   -7.0180   -1.1220 hc        1 MOL      0.118853
     93 N9         -0.4900   -3.7040    1.6450 n         1 MOL     -0.494031
     94 C29         0.7460   -2.8860    1.7670 c3        1 MOL      0.149976
     95 C30         1.8840   -3.4460    0.8700 c         1 MOL      0.407549
     96 O16         2.2800   -4.5740    1.0530 o         1 MOL     -0.535279
     97 C31         1.1620   -2.8620    3.2630 c3        1 MOL      0.033858
     98 C32         0.2330   -2.0520    4.2360 c3        1 MOL      0.062473
     99 C33         2.5890   -2.2950    3.5270 c3        1 MOL     -0.289739
    100 C34         0.5220   -2.3000    5.6630 c3        1 MOL     -0.067408
    101 H42        -0.5040   -4.5100    2.2500 hn        1 MOL      0.300020
    102 H43         0.5200   -1.8510    1.5330 h1        1 MOL      0.088874
    103 H44         1.0500   -3.9290    3.4730 hc        1 MOL      0.005346
    104 H45        -0.7820   -2.3870    4.0330 hc        1 MOL     -0.007611
    105 H46         0.3370   -0.9960    3.9910 hc        1 MOL     -0.007611
    106 H47         3.0890   -2.8560    4.3190 hc        1 MOL      0.068446
    107 H48         3.2030   -2.3750    2.6330 hc        1 MOL      0.068446
    108 H49         2.5630   -1.2150    3.6700 hc        1 MOL      0.068446
    109 H50         1.4960   -1.9840    6.0280 hc        1 MOL      0.012724
    110 H51        -0.2120   -1.8370    6.3380 hc        1 MOL      0.012724
    111 H52         0.2910   -3.3450    5.8710 hc        1 MOL      0.012724
    112 N10         2.3180   -2.6240   -0.0310 n         1 MOL     -0.062403
    113 C35         3.4240   -2.8940   -0.9210 c3        1 MOL     -0.103092
    114 C36         4.7670   -2.5210   -0.2110 c         1 MOL      0.315217
    115 O17         4.8370   -2.0210    0.9150 o         1 MOL     -0.298876
    116 C37         3.3300   -1.8930   -2.1260 c3        1 MOL      0.262476
    117 C38         2.2130   -2.3280   -3.1010 c3        1 MOL     -0.242947
    118 O18         3.0330   -0.6070   -1.7620 oh        1 MOL     -0.544564
    119 H53         1.8440   -1.7410   -0.1750 hn        1 MOL      0.044533
    120 H54         3.4620   -3.9200   -1.2880 h1        1 MOL      0.116066
    121 H55         4.2540   -1.9240   -2.7070 h1        1 MOL     -0.009713
    122 H56         2.0990   -0.6410   -1.5240 ho        1 MOL      0.327860
    123 H57         2.0880   -1.5340   -3.8270 hc        1 MOL      0.068269
    124 H58         2.4490   -3.3010   -3.5470 hc        1 MOL      0.068269
    125 H59         1.3240   -2.4830   -2.4870 hc        1 MOL      0.068269
    126 N11         5.8830   -2.8960   -0.7840 n         1 MOL     -0.228551
    127 C39         7.2870   -2.5480   -0.3390 c3        1 MOL     -0.346391
    128 C40         7.4550   -1.0300   -0.2870 c         1 MOL      0.535194
    129 O19         8.1590   -0.5690    0.6040 o         1 MOL     -0.477705
    130 C41         8.2650   -3.2430   -1.2690 c3        1 MOL      0.547523
    131 C42         9.6990   -3.2810   -0.7020 c3        1 MOL     -0.377757
    132 O20         7.8520   -4.5840   -1.6790 oh        1 MOL     -0.613084
    133 H60         5.8380   -3.4150   -1.6580 hn        1 MOL      0.184511
    134 H61         7.3310   -3.0200    0.6380 h1        1 MOL      0.193368
    135 H62         8.4630   -2.6340   -2.1510 h1        1 MOL     -0.075831
    136 H63         7.3150   -4.6160   -2.4700 ho        1 MOL      0.378137
    137 H64        10.3870   -3.8620   -1.3190 hc        1 MOL      0.109700
    138 H65        10.0640   -2.2550   -0.6580 hc        1 MOL      0.109700
    139 H66         9.7750   -3.8050    0.2530 hc        1 MOL      0.109700
    140 N12         6.7580   -0.3200   -1.2190 n         1 MOL     -0.434711
    141 C43         6.4630    1.1010   -1.1370 c3        1 MOL      0.093458
    142 C44         5.7730    1.5330    0.1410 c         1 MOL      0.431695
    143 O21         6.2180    2.5510    0.6810 o         1 MOL     -0.552648
    144 C45         5.7060    1.6600   -2.3710 c3        1 MOL     -0.077471
    145 C46         6.7080    2.0650   -3.4060 c3        1 MOL      0.160193
    146 C47         6.0650    2.6000   -4.6740 c3        1 MOL      0.000372
    147 C48         6.9520    2.2510   -5.9190 c3        1 MOL     -0.165112
    148 N13         8.1050    3.1280   -6.0200 n4        1 MOL     -0.161405
    149 H67         6.2770   -0.7820   -1.9820 hn        1 MOL      0.245737
    150 H68         7.4410    1.5640   -1.0260 h1        1 MOL      0.047776
    151 H69         5.1330    2.5220   -2.0280 hc        1 MOL      0.052844
    152 H70         4.9970    0.9160   -2.7390 hc        1 MOL      0.052844
    153 H71         7.3330    1.2230   -3.6980 hc        1 MOL     -0.044397
    154 H72         7.3010    2.8300   -2.9120 hc        1 MOL     -0.044397
    155 H73         5.8660    3.6650   -4.5330 hc        1 MOL      0.043629
    156 H74         5.1070    2.1190   -4.8170 hc        1 MOL      0.043629
    157 H75         6.3160    2.3960   -6.7960 hx        1 MOL      0.137601
    158 H76         7.2810    1.2380   -5.7010 hx        1 MOL      0.137601
    159 H77         7.9650    4.1190   -6.1100 hn        1 MOL      0.262055
    160 H78         8.6690    3.0830   -5.1840 hn        1 MOL      0.262055
    161 H79         8.6540    2.8630   -6.8370 hn        1 MOL      0.262055
    162 N14         4.7070    0.8580    0.6340 n         1 MOL     -0.066972
    163 C49         3.8670    1.3610    1.7470 c3        1 MOL     -0.284052
    164 C50         4.5110    0.7990    3.0750 c         1 MOL      0.490968
    165 O22         4.2570    1.3840    4.1300 o         1 MOL     -0.543883
    166 C51         2.4420    0.9400    1.4920 c3        1 MOL      0.192699
    167 C52         1.7570    1.6710    0.3170 c3        1 MOL     -0.202135
    168 C53         0.5310    0.8290   -0.0800 c         1 MOL      0.626239
    169 O23        -0.6160    1.3120   -0.0020 o         1 MOL     -0.626675
    170 O24         0.5950   -0.2660   -0.7180 o         1 MOL     -0.626675
    171 H80         4.3050    0.1280    0.0780 hn        1 MOL      0.024786
    172 H81         3.7640    2.4420    1.7580 h1        1 MOL      0.126719
    173 H82         1.7820    1.2060    2.3240 hc        1 MOL      0.046137
    174 H83         2.4070   -0.1470    1.4380 hc        1 MOL      0.046137
    175 H84         2.4210    1.7870   -0.5350 hc        1 MOL      0.058091
    176 H85         1.5100    2.6620    0.6970 hc        1 MOL      0.058091
    177 N15         5.3040   -0.3260    3.1100 n         1 MOL     -0.165754
    178 C54         6.0090   -0.8300    4.3440 c3        1 MOL     -0.264424
    179 H86         6.4440    0.0120    4.8820 h1        1 MOL      0.111296
    180 H87         5.2950   -1.3420    4.9880 h1        1 MOL      0.111296
    181 H88         6.8000   -1.5220    4.0540 h1        1 MOL      0.111296
    182 H89         5.4790   -0.8630    2.2730 hn        1 MOL      0.156074
    183 Ca1        -1.9060   -0.5260   -1.4660 Ca        1 MOL      1.693791
    184 O25        -1.1840   -2.8340   -2.6650 oh        1 MOL     -0.805415
    185 H90        -1.5730   -3.5650   -2.1820 ho        1 MOL      0.387428
    186 H91        -0.9700   -3.2070   -3.5220 ho        1 MOL      0.387428
    187 O26        -0.3010    0.0590   -3.5680 oh        1 MOL     -0.805415
    188 H92         0.5040    0.2340   -4.0690 ho        1 MOL      0.387428
    189 H93        -0.7690    0.8970   -3.5800 ho        1 MOL      0.387428
@<TRIPOS>BOND
     1    1    2 1   
     2    1    4 1   
     3    1    5 1   
     4    1    6 1   
     5    2    3 2   
     6    2    7 1   
     7    7    8 1   
     8    7   15 1   
     9    8    9 1   
    10    8   11 1   
    11    8   16 1   
    12    9   10 2   
    13    9   19 1   
    14   11   12 1   
    15   11   17 1   
    16   11   18 1   
    17   12   13 1   
    18   12   14 1   
    19   19   20 1   
    20   19   28 1   
    21   20   21 1   
    22   20   23 1   
    23   20   29 1   
    24   21   22 2   
    25   21   41 1   
    26   23   24 1   
    27   23   30 1   
    28   23   31 1   
    29   24   25 1   
    30   24   32 1   
    31   24   33 1   
    32   25   26 1   
    33   25   34 1   
    34   25   35 1   
    35   26   27 1   
    36   26   36 1   
    37   26   37 1   
    38   27   38 1   
    39   27   39 1   
    40   27   40 1   
    41   41   42 1   
    42   41   49 1   
    43   42   43 1   
    44   42   45 1   
    45   42   50 1   
    46   43   44 2   
    47   43   53 1   
    48   45   46 1   
    49   45   51 1   
    50   45   52 1   
    51   46   47 1   
    52   46   48 1   
    53   53   54 1   
    54   53   57 1   
    55   54   55 1   
    56   54   58 1   
    57   54   59 1   
    58   55   56 2   
    59   55   60 1   
    60   60   61 1   
    61   60   68 1   
    62   61   62 1   
    63   61   64 1   
    64   61   69 1   
    65   62   63 2   
    66   62   72 1   
    67   64   65 1   
    68   64   70 1   
    69   64   71 1   
    70   65   66 1   
    71   65   67 1   
    72   72   73 1   
    73   72   76 1   
    74   73   74 1   
    75   73   77 1   
    76   73   78 1   
    77   74   75 2   
    78   74   79 1   
    79   79   80 1   
    80   79   86 1   
    81   80   81 1   
    82   80   83 1   
    83   80   87 1   
    84   81   82 2   
    85   81   93 1   
    86   83   84 1   
    87   83   85 1   
    88   83   88 1   
    89   84   90 1   
    90   84   91 1   
    91   84   92 1   
    92   85   89 1   
    93   93   94 1   
    94   93  101 1   
    95   94   95 1   
    96   94   97 1   
    97   94  102 1   
    98   95   96 2   
    99   95  112 1   
   100   97   98 1   
   101   97   99 1   
   102   97  103 1   
   103   98  100 1   
   104   98  104 1   
   105   98  105 1   
   106   99  106 1   
   107   99  107 1   
   108   99  108 1   
   109  100  109 1   
   110  100  110 1   
   111  100  111 1   
   112  112  113 1   
   113  112  119 1   
   114  113  114 1   
   115  113  116 1   
   116  113  120 1   
   117  114  115 2   
   118  114  126 1   
   119  116  117 1   
   120  116  118 1   
   121  116  121 1   
   122  117  123 1   
   123  117  124 1   
   124  117  125 1   
   125  118  122 1   
   126  126  127 1   
   127  126  133 1   
   128  127  128 1   
   129  127  130 1   
   130  127  134 1   
   131  128  129 2   
   132  128  140 1   
   133  130  131 1   
   134  130  132 1   
   135  130  135 1   
   136  131  137 1   
   137  131  138 1   
   138  131  139 1   
   139  132  136 1   
   140  140  141 1   
   141  140  149 1   
   142  141  142 1   
   143  141  144 1   
   144  141  150 1   
   145  142  143 2   
   146  142  162 1   
   147  144  145 1   
   148  144  151 1   
   149  144  152 1   
   150  145  146 1   
   151  145  153 1   
   152  145  154 1   
   153  146  147 1   
   154  146  155 1   
   155  146  156 1   
   156  147  148 1   
   157  147  157 1   
   158  147  158 1   
   159  148  159 1   
   160  148  160 1   
   161  148  161 1   
   162  162  163 1   
   163  162  171 1   
   164  163  164 1   
   165  163  166 1   
   166  163  172 1   
   167  164  165 2   
   168  164  177 1   
   169  166  167 1   
   170  166  173 1   
   171  166  174 1   
   172  167  168 1   
   173  167  175 1   
   174  167  176 1   
   175  168  169 1   
   176  168  170 1   
   177  177  178 1   
   178  177  182 1   
   179  178  179 1   
   180  178  180 1   
   181  178  181 1   
   182  184  185 1   
   183  184  186 1   
   184  187  188 1   
   185  187  189 1   
@<TRIPOS>SUBSTRUCTURE
     1 MOL         1 TEMP              0 ****  ****    0 ROOT
