@<TRIPOS>MOLECULE
MOL
  189   185     1     0     0
SMALL
resp


@<TRIPOS>ATOM
      1 C1         -0.2690    4.6720    5.7080 c3        1 MOL     -0.469715
      2 C2         -0.4290    4.3400    4.1940 c         1 MOL      0.799383
      3 O1          0.4480    4.2380    3.3940 o         1 MOL     -0.563408
      4 H1          0.1680    5.6650    5.8170 hc        1 MOL      0.111463
      5 H2         -1.2460    4.6500    6.1900 hc        1 MOL      0.111463
      6 H3          0.3840    3.9350    6.1740 hc        1 MOL      0.111463
      7 N1         -1.7100    4.2680    3.8050 n         1 MOL     -0.740819
      8 C3         -2.1590    3.8140    2.4790 c3        1 MOL      0.407060
      9 C4         -2.1130    4.8950    1.4120 c         1 MOL      0.510791
     10 O2         -2.4240    6.0190    1.7500 o         1 MOL     -0.564718
     11 C5         -3.6070    3.3660    2.5810 c3        1 MOL     -0.416235
     12 C6         -4.2560    2.9760    1.2700 c         1 MOL      0.790680
     13 O3         -3.7020    2.2600    0.4530 o         1 MOL     -0.668463
     14 O4         -5.2990    3.6090    0.9540 o         1 MOL     -0.668463
     15 H4         -2.4330    4.4980    4.4640 hn        1 MOL      0.355650
     16 H5         -1.6010    2.9950    2.0200 h1        1 MOL     -0.120891
     17 H6         -4.1770    4.1550    3.0800 hc        1 MOL      0.061799
     18 H7         -3.7240    2.5170    3.2570 hc        1 MOL      0.061799
     19 N2         -1.9170    4.5210    0.1430 n         1 MOL     -0.137787
     20 C7         -1.9850    5.4100   -0.9870 c3        1 MOL      0.016697
     21 C8         -2.5120    4.7440   -2.3330 c         1 MOL      0.421034
     22 O5         -2.5140    5.4110   -3.3730 o         1 MOL     -0.523927
     23 C9         -0.6140    6.2080   -1.1400 c3        1 MOL      0.238286
     24 C10        -0.6730    7.4980   -1.9120 c3        1 MOL      0.006144
     25 C11         0.4960    5.2570   -1.4600 c3        1 MOL     -0.380368
     26 C12        -1.7240    8.5150   -1.3340 c3        1 MOL     -0.171636
     27 H8         -1.5130    3.5970    0.0680 hn        1 MOL     -0.066004
     28 H9         -2.8040    6.0860   -0.7230 h1        1 MOL      0.033630
     29 H10        -0.5400    6.5740   -0.1160 hc        1 MOL     -0.000854
     30 H11        -0.9890    7.1450   -2.8890 hc        1 MOL     -0.017580
     31 H12         0.3190    7.9520   -1.9120 hc        1 MOL     -0.017580
     32 H13         0.5960    4.3790   -0.8320 hc        1 MOL      0.092638
     33 H14         0.4130    4.8170   -2.4600 hc        1 MOL      0.092638
     34 H15         1.4560    5.7460   -1.2840 hc        1 MOL      0.092638
     35 H16        -2.6850    8.4390   -1.8280 hc        1 MOL      0.033754
     36 H17        -1.7140    8.6240   -0.2460 hc        1 MOL      0.033754
     37 H18        -1.5400    9.4890   -1.7940 hc        1 MOL      0.033754
     38 N3         -2.9220    3.4590   -2.3560 n         1 MOL     -0.337256
     39 C13        -3.6710    2.9400   -3.4530 c3        1 MOL      0.109931
     40 C14        -5.1210    2.5530   -3.1310 c         1 MOL      0.304554
     41 O6         -5.9140    2.4560   -4.0910 o         1 MOL     -0.530077
     42 C15        -2.8400    1.8120   -4.1530 c3        1 MOL     -0.230153
     43 C16        -2.4150    0.6680   -3.2710 c         1 MOL      0.663870
     44 O7         -3.0340    0.4550   -2.1970 o         1 MOL     -0.664617
     45 O8         -1.3480    0.0820   -3.5940 o         1 MOL     -0.664617
     46 H19        -2.7780    2.9070   -1.5230 hn        1 MOL      0.469953
     47 H20        -3.7400    3.6870   -4.2390 h1        1 MOL      0.070653
     48 H21        -1.8780    2.1710   -4.5060 hc        1 MOL      0.061685
     49 H22        -3.4390    1.5500   -5.0210 hc        1 MOL      0.061685
     50 N4         -5.4150    2.2250   -1.8280 n         1 MOL      0.055768
     51 C17        -6.8200    1.8560   -1.3710 c3        1 MOL     -0.243394
     52 C18        -7.2380    0.4410   -1.8640 c         1 MOL      0.474549
     53 O9         -8.3980    0.2950   -2.2080 o         1 MOL     -0.569092
     54 H23        -4.6410    2.3540   -1.1860 hn        1 MOL     -0.122951
     55 H24        -7.4210    2.5890   -1.8970 h1        1 MOL      0.116679
     56 H25        -6.9140    1.9790   -0.2880 h1        1 MOL      0.116679
     57 N5         -6.2990   -0.4790   -1.9110 n         1 MOL     -0.137812
     58 C19        -6.4870   -1.8770   -2.3790 c3        1 MOL     -0.258421
     59 C20        -6.8830   -2.9070   -1.3100 c         1 MOL      0.598244
     60 O10        -7.1740   -4.0830   -1.4660 o         1 MOL     -0.540908
     61 C21        -5.1290   -2.3410   -3.0280 c3        1 MOL     -0.000231
     62 C22        -4.0040   -2.6660   -1.9960 c         1 MOL      0.530814
     63 O11        -3.9590   -2.0940   -0.8740 o         1 MOL     -0.657730
     64 O12        -3.0740   -3.4700   -2.4050 o         1 MOL     -0.657730
     65 H26        -5.3750   -0.2120   -1.6030 hn        1 MOL      0.202618
     66 H27        -7.2730   -1.9720   -3.1150 h1        1 MOL      0.147996
     67 H28        -4.7410   -1.5830   -3.7100 hc        1 MOL      0.041998
     68 H29        -5.2790   -3.1900   -3.6940 hc        1 MOL      0.041998
     69 N6         -6.7980   -2.4460    0.0400 n         1 MOL     -0.478288
     70 C23        -6.9960   -3.2290    1.2580 c3        1 MOL     -0.052910
     71 C24        -5.7750   -3.9700    1.8440 c         1 MOL      0.335506
     72 O13        -5.8780   -4.3780    2.9860 o         1 MOL     -0.560281
     73 H30        -6.1790   -1.6730    0.1930 hn        1 MOL      0.224619
     74 H31        -7.7650   -3.9560    1.0170 h1        1 MOL      0.093403
     75 H32        -7.5330   -2.6430    2.0070 h1        1 MOL      0.093403
     76 N7         -4.6250   -4.0090    1.1590 n         1 MOL     -0.067706
     77 C25        -3.3690   -4.4690    1.6450 c3        1 MOL     -0.004313
     78 C26        -2.3920   -3.3190    2.0290 c         1 MOL      0.564294
     79 O14        -2.5040   -2.2430    1.5450 o         1 MOL     -0.579789
     80 C27        -2.7050   -5.3300    0.4770 c3        1 MOL      0.014451
     81 C28        -3.6900   -6.2500   -0.2850 c3        1 MOL     -0.286792
     82 C29        -2.9880   -6.9280   -1.4680 c         1 MOL      0.755750
     83 N8         -2.9730   -6.3240   -2.6150 n         1 MOL     -0.796460
     84 O15        -2.4500   -7.9840   -1.3380 o         1 MOL     -0.635517
     85 H33        -4.6040   -3.5530    0.2590 hn        1 MOL      0.272519
     86 H34        -3.5180   -5.0680    2.5410 h1        1 MOL      0.041974
     87 H35        -1.8090   -5.8180    0.8440 hc        1 MOL      0.030914
     88 H36        -2.4330   -4.6290   -0.3090 hc        1 MOL      0.030914
     89 H37        -4.5700   -5.7150   -0.6240 hc        1 MOL      0.060826
     90 H38        -4.0340   -7.0460    0.3770 hc        1 MOL      0.060826
     91 H39        -3.1250   -5.3300   -2.7250 hn        1 MOL      0.347571
     92 H40        -2.5080   -6.6690   -3.4350 hn        1 MOL      0.347571
     93 N9         -1.3750   -3.6460    2.8790 n         1 MOL     -0.672688
     94 C30        -0.2220   -2.6780    3.0790 c3        1 MOL      0.328629
     95 C31         0.9420   -3.0790    2.1180 c         1 MOL      0.454707
     96 O16         1.4180   -4.1930    2.0150 o         1 MOL     -0.561736
     97 C32         0.2190   -2.4920    4.5320 c3        1 MOL      0.146796
     98 C33         0.5570   -3.7310    5.3280 c3        1 MOL     -0.284581
     99 C34         1.5260   -1.5980    4.6060 c3        1 MOL     -0.284581
    100 H41        -1.2790   -4.6010    3.2050 hn        1 MOL      0.330088
    101 H42        -0.4570   -1.6410    2.8640 h1        1 MOL     -0.023537
    102 H43        -0.6100   -1.9480    4.9770 hc        1 MOL     -0.006074
    103 H44         0.6370   -3.5310    6.3950 hc        1 MOL      0.062652
    104 H45        -0.1810   -4.5310    5.2720 hc        1 MOL      0.062652
    105 H46         1.4740   -4.1680    4.9350 hc        1 MOL      0.062652
    106 H47         2.3670   -2.0950    4.1240 hc        1 MOL      0.062652
    107 H48         1.4120   -0.6930    3.9980 hc        1 MOL      0.062652
    108 H49         1.8230   -1.1780    5.5690 hc        1 MOL      0.062652
    109 N10         1.4370   -2.0740    1.3220 n         1 MOL     -0.022393
    110 C35         2.5000   -2.3030    0.3240 c3        1 MOL     -0.039498
    111 C36         3.8910   -2.0900    0.9050 c         1 MOL      0.266857
    112 O17         3.9150   -1.2990    1.8800 o         1 MOL     -0.373564
    113 C37         2.2850   -1.4310   -0.8990 c3        1 MOL     -0.074622
    114 C38         3.3800   -1.5010   -1.8650 c         1 MOL      0.714884
    115 N11         3.2840   -2.2770   -2.9220 n         1 MOL     -0.781928
    116 O18         4.3530   -0.7870   -1.6730 o         1 MOL     -0.553194
    117 H50         0.9340   -1.2000    1.2920 hn        1 MOL     -0.072927
    118 H51         2.4260   -3.3190   -0.0620 h1        1 MOL      0.052372
    119 H52         2.2240   -0.3910   -0.5710 hc        1 MOL      0.040949
    120 H53         1.3230   -1.6210   -1.3760 hc        1 MOL      0.040949
    121 H54         2.6250   -3.0500   -2.9400 hn        1 MOL      0.366904
    122 H55         3.9330   -2.1830   -3.6880 hn        1 MOL      0.366904
    123 N12         5.0180   -2.6020    0.4140 n         1 MOL     -0.200449
    124 C39         6.3500   -2.2460    1.0550 c3        1 MOL      0.079089
    125 C40         6.5860   -0.7200    0.9540 c         1 MOL      0.418253
    126 O19         6.9380   -0.1110    2.0080 o         1 MOL     -0.596922
    127 C41         7.4980   -3.1060    0.4790 c3        1 MOL     -0.207724
    128 C42         7.8240   -2.8830   -0.9980 ca        1 MOL      0.063872
    129 C43         8.8930   -2.0810   -1.4240 ca        1 MOL     -0.200486
    130 C44         7.0880   -3.6410   -1.9730 ca        1 MOL     -0.200486
    131 C45         9.0670   -1.9130   -2.8050 ca        1 MOL     -0.292707
    132 C46         7.2790   -3.4450   -3.3150 ca        1 MOL     -0.292707
    133 C47         8.2540   -2.5600   -3.7000 ca        1 MOL      0.467162
    134 O20         8.5280   -2.5600   -5.0070 oh        1 MOL     -0.546806
    135 H56         5.0150   -3.2610   -0.3460 hn        1 MOL      0.164122
    136 H57         6.3030   -2.3750    2.1380 h1        1 MOL      0.069643
    137 H58         7.0950   -4.1100    0.5910 hc        1 MOL      0.068908
    138 H59         8.3770   -2.9650    1.1100 hc        1 MOL      0.068908
    139 H60         9.4800   -1.5340   -0.7070 ha        1 MOL      0.159422
    140 H61         6.3690   -4.3750   -1.6360 ha        1 MOL      0.159422
    141 H62         9.8560   -1.2740   -3.1460 ha        1 MOL      0.147251
    142 H63         6.6920   -4.0380   -4.0040 ha        1 MOL      0.147251
    143 H64         9.3560   -2.1100   -5.2050 ho        1 MOL      0.389248
    144 N13         6.2980    0.0080   -0.1040 n         1 MOL     -0.040310
    145 C48         6.6130    1.4280   -0.1400 c3        1 MOL     -0.194942
    146 C49         5.6300    2.2790    0.7760 c         1 MOL      0.421493
    147 O21         5.9540    3.4480    1.0350 o         1 MOL     -0.550034
    148 C50         6.5440    1.9060   -1.5740 c3        1 MOL      0.073438
    149 C51         7.4610    1.3060   -2.6110 c3        1 MOL     -0.187200
    150 C52         7.7780    2.1040   -3.8920 c         1 MOL      0.713764
    151 O22         8.9430    2.0740   -4.3890 o         1 MOL     -0.739989
    152 O23         6.8630    2.8280   -4.4030 o         1 MOL     -0.739989
    153 H65         5.8530   -0.4340   -0.9010 hn        1 MOL      0.214267
    154 H66         7.5950    1.6710    0.2650 h1        1 MOL      0.133805
    155 H67         6.8860    2.9340   -1.6450 hc        1 MOL      0.024106
    156 H68         5.5330    2.0410   -1.9590 hc        1 MOL      0.024106
    157 H69         7.2040    0.2830   -2.9100 hc        1 MOL      0.004361
    158 H70         8.4040    1.1990   -2.0740 hc        1 MOL      0.004361
    159 N14         4.5960    1.6650    1.3610 n         1 MOL     -0.065505
    160 C53         3.7670    2.1630    2.4420 c3        1 MOL      0.003883
    161 C54         4.1140    1.5900    3.8530 c         1 MOL      0.390244
    162 O24         3.8540    2.3390    4.8560 o         1 MOL     -0.590589
    163 C55         2.3450    1.6470    2.1880 c3        1 MOL      0.029452
    164 C56         1.5450    2.0490    0.8900 c3        1 MOL     -0.026538
    165 C57         0.2030    1.3140    0.5810 c         1 MOL      0.872218
    166 O25        -0.1520    0.3590    1.3470 o         1 MOL     -0.734024
    167 O26        -0.5620    1.6310   -0.3380 o         1 MOL     -0.734024
    168 H71         4.5750    0.6730    1.1680 hn        1 MOL     -0.075055
    169 H72         3.8090    3.2420    2.5680 h1        1 MOL      0.089772
    170 H73         1.7190    2.0310    2.9990 hc        1 MOL      0.000034
    171 H74         2.3160    0.5630    2.3270 hc        1 MOL      0.000034
    172 H75         2.1400    1.9760   -0.0210 hc        1 MOL      0.021849
    173 H76         1.4330    3.1310    0.8480 hc        1 MOL      0.021849
    174 N15         4.6470    0.4070    3.9690 n         1 MOL     -0.034181
    175 C58         5.0370   -0.1760    5.2360 c3        1 MOL     -0.097444
    176 H77         5.1000    0.6060    5.9920 h1        1 MOL      0.045898
    177 H78         4.2970   -0.9160    5.5390 h1        1 MOL      0.045898
    178 H79         6.0100   -0.6570    5.1300 h1        1 MOL      0.045898
    179 H80         4.7600   -0.0810    3.0950 hn        1 MOL      0.158006
    180 Ca1        -2.6730   -0.1030    0.3450 Ca        1 MOL      1.735175
    181 O27        -5.2880   -0.1010    1.4590 oh        1 MOL     -0.832640
    182 H81        -6.0940    0.3460    1.7180 ho        1 MOL      0.413284
    183 H82        -5.1170   -0.7150    2.1770 ho        1 MOL      0.413284
    184 O28        -2.3220    0.4110    3.1180 oh        1 MOL     -0.832640
    185 H83        -1.3840    0.3160    2.9480 ho        1 MOL      0.413284
    186 H84        -2.3690    0.7980    3.9950 ho        1 MOL      0.413284
    187 O29        -1.2500   -1.6520   -1.4450 oh        1 MOL     -0.832640
    188 H85        -1.8080   -2.4070   -1.6090 ho        1 MOL      0.413284
    189 H86        -1.3920   -1.0730   -2.2000 ho        1 MOL      0.413284
@<TRIPOS>BOND
     1    1    2 1   
     2    1    4 1   
     3    1    5 1   
     4    1    6 1   
     5    2    3 2   
     6    2    7 1   
     7    7    8 1   
     8    7   15 1   
     9    8    9 1   
    10    8   11 1   
    11    8   16 1   
    12    9   10 2   
    13    9   19 1   
    14   11   12 1   
    15   11   17 1   
    16   11   18 1   
    17   12   13 1   
    18   12   14 1   
    19   19   20 1   
    20   19   27 1   
    21   20   21 1   
    22   20   23 1   
    23   20   28 1   
    24   21   22 2   
    25   21   38 1   
    26   23   24 1   
    27   23   25 1   
    28   23   29 1   
    29   24   26 1   
    30   24   30 1   
    31   24   31 1   
    32   25   32 1   
    33   25   33 1   
    34   25   34 1   
    35   26   35 1   
    36   26   36 1   
    37   26   37 1   
    38   38   39 1   
    39   38   46 1   
    40   39   40 1   
    41   39   42 1   
    42   39   47 1   
    43   40   41 2   
    44   40   50 1   
    45   42   43 1   
    46   42   48 1   
    47   42   49 1   
    48   43   44 1   
    49   43   45 1   
    50   50   51 1   
    51   50   54 1   
    52   51   52 1   
    53   51   55 1   
    54   51   56 1   
    55   52   53 2   
    56   52   57 1   
    57   57   58 1   
    58   57   65 1   
    59   58   59 1   
    60   58   61 1   
    61   58   66 1   
    62   59   60 2   
    63   59   69 1   
    64   61   62 1   
    65   61   67 1   
    66   61   68 1   
    67   62   63 1   
    68   62   64 1   
    69   69   70 1   
    70   69   73 1   
    71   70   71 1   
    72   70   74 1   
    73   70   75 1   
    74   71   72 2   
    75   71   76 1   
    76   76   77 1   
    77   76   85 1   
    78   77   78 1   
    79   77   80 1   
    80   77   86 1   
    81   78   79 2   
    82   78   93 1   
    83   80   81 1   
    84   80   87 1   
    85   80   88 1   
    86   81   82 1   
    87   81   89 1   
    88   81   90 1   
    89   82   83 1   
    90   82   84 2   
    91   83   91 1   
    92   83   92 1   
    93   93   94 1   
    94   93  100 1   
    95   94   95 1   
    96   94   97 1   
    97   94  101 1   
    98   95   96 2   
    99   95  109 1   
   100   97   98 1   
   101   97   99 1   
   102   97  102 1   
   103   98  103 1   
   104   98  104 1   
   105   98  105 1   
   106   99  106 1   
   107   99  107 1   
   108   99  108 1   
   109  109  110 1   
   110  109  117 1   
   111  110  111 1   
   112  110  113 1   
   113  110  118 1   
   114  111  112 2   
   115  111  123 1   
   116  113  114 1   
   117  113  119 1   
   118  113  120 1   
   119  114  115 1   
   120  114  116 2   
   121  115  121 1   
   122  115  122 1   
   123  123  124 1   
   124  123  135 1   
   125  124  125 1   
   126  124  127 1   
   127  124  136 1   
   128  125  126 2   
   129  125  144 1   
   130  127  128 1   
   131  127  137 1   
   132  127  138 1   
   133  128  129 ar  
   134  128  130 ar  
   135  129  131 ar  
   136  129  139 1   
   137  130  132 ar  
   138  130  140 1   
   139  131  133 ar  
   140  131  141 1   
   141  132  133 ar  
   142  132  142 1   
   143  133  134 1   
   144  134  143 1   
   145  144  145 1   
   146  144  153 1   
   147  145  146 1   
   148  145  148 1   
   149  145  154 1   
   150  146  147 2   
   151  146  159 1   
   152  148  149 1   
   153  148  155 1   
   154  148  156 1   
   155  149  150 1   
   156  149  157 1   
   157  149  158 1   
   158  150  151 1   
   159  150  152 1   
   160  159  160 1   
   161  159  168 1   
   162  160  161 1   
   163  160  163 1   
   164  160  169 1   
   165  161  162 2   
   166  161  174 1   
   167  163  164 1   
   168  163  170 1   
   169  163  171 1   
   170  164  165 1   
   171  164  172 1   
   172  164  173 1   
   173  165  166 1   
   174  165  167 1   
   175  174  175 1   
   176  174  179 1   
   177  175  176 1   
   178  175  177 1   
   179  175  178 1   
   180  181  182 1   
   181  181  183 1   
   182  184  185 1   
   183  184  186 1   
   184  187  188 1   
   185  187  189 1   
@<TRIPOS>SUBSTRUCTURE
     1 MOL         1 TEMP              0 ****  ****    0 ROOT
