@<TRIPOS>MOLECULE
MOL
  179   176     1     0     0
SMALL
resp


@<TRIPOS>ATOM
      1 C1          2.4570    3.1240    4.0580 c3        1 MOL     -0.366986
      2 C2          1.5700    2.7900    2.8680 c         1 MOL      0.585399
      3 O1          2.0940    2.6590    1.7740 o         1 MOL     -0.508192
      4 H1          3.4580    2.7270    3.8870 hc        1 MOL      0.094778
      5 H2          2.5100    4.2050    4.1800 hc        1 MOL      0.094778
      6 H3          2.0390    2.6760    4.9600 hc        1 MOL      0.094778
      7 N1          0.2750    2.9630    3.0540 n         1 MOL     -0.729705
      8 C3         -0.7900    2.7240    2.0920 c3        1 MOL      0.050637
      9 C4         -1.3900    4.0400    1.6840 c         1 MOL      0.692799
     10 O2         -2.5710    4.3570    1.8540 o         1 MOL     -0.490625
     11 C5         -1.8520    1.7340    2.5970 c3        1 MOL      0.028627
     12 C6         -2.9030    1.3340    1.5870 c         1 MOL      0.347173
     13 O3         -4.1160    1.2620    1.9700 o         1 MOL     -0.543871
     14 O4         -2.6240    1.2070    0.3320 o         1 MOL     -0.543871
     15 H4          0.0520    3.1470    4.0190 hn        1 MOL      0.386735
     16 H5         -0.3260    2.2360    1.2360 h1        1 MOL      0.036497
     17 H6         -2.3820    2.1500    3.4560 hc        1 MOL      0.016593
     18 H7         -1.4240    0.8000    2.9710 hc        1 MOL      0.016593
     19 N2         -0.4780    4.8080    1.1020 n         1 MOL     -0.592014
     20 C7         -0.7710    6.1410    0.4970 c3        1 MOL      0.068628
     21 C8         -1.8380    6.0860   -0.5980 c         1 MOL      0.404992
     22 O5         -2.6310    7.0300   -0.6660 o         1 MOL     -0.518868
     23 C9          0.5250    6.7340   -0.0800 c3        1 MOL     -0.168980
     24 C10         1.5260    6.9340    1.0130 c3        1 MOL      0.275186
     25 C11         2.6500    7.9060    0.6360 c3        1 MOL     -0.212538
     26 C12         3.7230    8.0020    1.6840 c3        1 MOL      0.107013
     27 N3          4.6950    6.8810    1.4120 n4        1 MOL     -0.457072
     28 H8          0.4300    4.3710    1.0440 hn        1 MOL      0.360615
     29 H9         -1.1440    6.8130    1.2750 h1        1 MOL      0.088729
     30 H10         0.4430    7.7220   -0.5280 hc        1 MOL      0.059002
     31 H11         0.9120    5.9870   -0.7720 hc        1 MOL      0.059002
     32 H12         2.0970    6.0250    1.1910 hc        1 MOL     -0.041323
     33 H13         1.0230    7.1820    1.9430 hc        1 MOL     -0.041323
     34 H14         2.2080    8.9070    0.6650 hc        1 MOL      0.081768
     35 H15         3.0190    7.6400   -0.3480 hc        1 MOL      0.081768
     36 H16         3.4200    7.8850    2.7180 hx        1 MOL      0.082028
     37 H17         4.1270    9.0080    1.6370 hx        1 MOL      0.082028
     38 H18         5.4780    6.9960    2.0230 hn        1 MOL      0.354062
     39 H19         4.3510    5.9410    1.5630 hn        1 MOL      0.354062
     40 H20         5.0410    6.7830    0.4610 hn        1 MOL      0.354062
     41 N4         -1.7950    5.0440   -1.4020 n         1 MOL     -0.241216
     42 C13        -2.7790    4.8310   -2.4670 c3        1 MOL     -0.094551
     43 C14        -4.1880    4.3760   -1.8700 c         1 MOL      0.279001
     44 O6         -5.2050    4.3400   -2.5710 o         1 MOL     -0.454228
     45 C15        -2.2950    3.8880   -3.5610 c3        1 MOL     -0.226038
     46 C16        -2.0060    2.4710   -3.0360 c         1 MOL      0.712059
     47 O7         -2.7950    1.4400   -3.1870 o         1 MOL     -0.687490
     48 O8         -0.8840    2.3350   -2.4740 o         1 MOL     -0.687490
     49 H21        -0.9800    4.4380   -1.4590 hn        1 MOL      0.242091
     50 H22        -2.8620    5.8190   -2.9150 h1        1 MOL      0.138128
     51 H23        -1.3620    4.2300   -3.9980 hc        1 MOL      0.076534
     52 H24        -3.0310    3.9420   -4.3620 hc        1 MOL      0.076534
     53 N5         -4.2730    3.9680   -0.5800 n         1 MOL      0.200979
     54 C17        -5.5280    3.7270    0.1180 c3        1 MOL     -0.264561
     55 C18        -6.3130    2.6360   -0.5620 c         1 MOL      0.512985
     56 O9         -7.4220    2.8810   -1.0590 o         1 MOL     -0.567159
     57 H25        -3.4250    3.9870   -0.0280 hn        1 MOL     -0.008741
     58 H26        -6.1680    4.6180    0.0840 h1        1 MOL      0.107499
     59 H27        -5.2340    3.4140    1.1220 h1        1 MOL      0.107499
     60 N6         -5.6800    1.5050   -0.6510 n         1 MOL     -0.008542
     61 C19        -6.4030    0.3000   -1.0270 c3        1 MOL     -0.128897
     62 C20        -6.5170   -0.7560    0.0770 c         1 MOL      0.263396
     63 O10        -7.0180   -1.8090   -0.2510 o         1 MOL     -0.418796
     64 C21        -5.9410   -0.1820   -2.3850 c3        1 MOL     -0.014799
     65 C22        -4.7440   -1.1420   -2.3500 c         1 MOL      0.407277
     66 N7         -4.5450   -1.9940   -3.3790 n         1 MOL     -0.644004
     67 O11        -3.8910   -1.1270   -1.4390 o         1 MOL     -0.343070
     68 H28        -4.7880    1.3720   -0.1870 hn        1 MOL     -0.171456
     69 H29        -7.4430    0.5250   -1.2930 h1        1 MOL      0.136243
     70 H30        -5.5910    0.6750   -2.9560 hc        1 MOL      0.054436
     71 H31        -6.7550   -0.7060   -2.8840 hc        1 MOL      0.054436
     72 H32        -5.0990   -1.9100   -4.2230 hn        1 MOL      0.319272
     73 H33        -3.7650   -2.6330   -3.3900 hn        1 MOL      0.319272
     74 N8         -6.1510   -0.4990    1.2990 n         1 MOL     -0.151837
     75 C23        -6.0880   -1.5510    2.3210 c3        1 MOL     -0.381043
     76 C24        -4.8760   -2.5440    2.4030 c         1 MOL      0.746369
     77 O12        -4.9290   -3.4920    3.1380 o         1 MOL     -0.564228
     78 H34        -5.7500    0.3960    1.5380 hn        1 MOL      0.273742
     79 H35        -7.0000   -2.1440    2.1780 h1        1 MOL      0.150858
     80 H36        -6.2060   -1.0190    3.2690 h1        1 MOL      0.150858
     81 N9         -3.8150   -2.3060    1.6120 n         1 MOL     -0.777723
     82 C25        -2.7770   -3.3080    1.3880 c3        1 MOL      0.554412
     83 C26        -1.4070   -2.5450    1.2130 c         1 MOL      0.085013
     84 O13        -1.3020   -1.5710    0.5400 o         1 MOL     -0.290510
     85 C27        -2.9710   -4.1890    0.1570 c3        1 MOL      0.078009
     86 C28        -4.1100   -5.2830    0.2770 ca        1 MOL     -0.089357
     87 C29        -5.4800   -4.8780    0.3560 ca        1 MOL     -0.076917
     88 C30        -3.8350   -6.6560    0.3110 ca        1 MOL     -0.076917
     89 C31        -6.4990   -5.8090    0.3870 ca        1 MOL     -0.269106
     90 C32        -4.8840   -7.5630    0.2410 ca        1 MOL     -0.269106
     91 C33        -6.2310   -7.1660    0.3750 ca        1 MOL      0.351950
     92 O14        -7.2180   -8.0970    0.2090 oh        1 MOL     -0.477799
     93 H37        -3.7880   -1.4540    1.0540 hn        1 MOL      0.481245
     94 H38        -2.7120   -3.9910    2.2460 h1        1 MOL     -0.037773
     95 H39        -2.1120   -4.8470    0.0360 hc        1 MOL     -0.025683
     96 H40        -3.0940   -3.6120   -0.7530 hc        1 MOL     -0.025683
     97 H41        -5.6970   -3.8390    0.2070 ha        1 MOL      0.078473
     98 H42        -2.8240   -7.0280    0.2320 ha        1 MOL      0.078473
     99 H43        -7.5460   -5.5820    0.4750 ha        1 MOL      0.131860
    100 H44        -4.6360   -8.6030    0.0590 ha        1 MOL      0.131860
    101 H45        -6.9440   -9.0110    0.1220 ho        1 MOL      0.340301
    102 N10        -0.3210   -3.1030    1.7260 n         1 MOL     -0.331529
    103 C34         1.0610   -2.6310    1.5080 c3        1 MOL     -0.046694
    104 C35         2.0170   -3.8000    1.1230 c         1 MOL      0.606015
    105 O15         1.6830   -4.9730    1.1590 o         1 MOL     -0.557922
    106 C36         1.6400   -1.7900    2.6500 c3        1 MOL      0.026948
    107 C37         1.6420   -2.6120    3.8840 c3        1 MOL     -0.003030
    108 C38         0.7420   -0.5930    2.7880 c3        1 MOL     -0.232531
    109 C39         2.2930   -1.8250    5.0530 c3        1 MOL     -0.213613
    110 H46        -0.4930   -3.9930    2.1550 hn        1 MOL      0.239639
    111 H47         1.0690   -1.9970    0.6230 h1        1 MOL      0.140885
    112 H48         2.6050   -1.3700    2.3610 hc        1 MOL      0.076955
    113 H49         2.2750   -3.4730    3.6290 hc        1 MOL      0.037206
    114 H50         0.6770   -2.9730    4.2360 hc        1 MOL      0.037206
    115 H51        -0.0190   -0.7950    3.5370 hc        1 MOL      0.097261
    116 H52         1.3740    0.2510    3.0740 hc        1 MOL      0.097261
    117 H53         0.2640   -0.1290    1.9280 hc        1 MOL      0.097261
    118 H54         3.1160   -1.2340    4.6510 hc        1 MOL      0.047827
    119 H55         1.4800   -1.2150    5.4460 hc        1 MOL      0.047827
    120 H56         2.7690   -2.4960    5.7740 hc        1 MOL      0.047827
    121 N11         3.1820   -3.3860    0.6490 n         1 MOL     -0.330973
    122 C40         4.1420   -4.1610   -0.1750 c3        1 MOL      0.119449
    123 C41         5.5560   -3.6990    0.0340 c         1 MOL      0.372159
    124 O16         5.8470   -2.7290    0.7320 o         1 MOL     -0.342359
    125 C42         3.9160   -3.9180   -1.6340 c3        1 MOL     -0.174885
    126 O17         3.9650   -2.5490   -1.9480 oh        1 MOL     -0.397916
    127 H57         3.3590   -2.3930    0.6940 hn        1 MOL      0.029572
    128 H58         4.1830   -5.2410   -0.0030 h1        1 MOL      0.070381
    129 H59         2.9470   -4.3640   -1.8180 h1        1 MOL      0.094910
    130 H60         4.5370   -4.5410   -2.2760 h1        1 MOL      0.094910
    131 H61         3.4340   -2.4630   -2.7470 ho        1 MOL      0.363819
    132 N12         6.5240   -4.3170   -0.6200 n         1 MOL     -0.405564
    133 C43         7.9000   -3.9210   -0.6500 c3        1 MOL      0.124974
    134 C44         8.0430   -2.4920   -1.1460 c         1 MOL      0.544681
    135 O18         8.5840   -1.6860   -0.4060 o         1 MOL     -0.550777
    136 C45         8.8410   -4.9340   -1.3460 c3        1 MOL     -0.323642
    137 H62         6.1860   -5.0390   -1.2420 hn        1 MOL      0.282490
    138 H63         8.2300   -4.0090    0.3880 h1        1 MOL      0.094868
    139 H64         9.8400   -4.5580   -1.5460 hc        1 MOL      0.097677
    140 H65         9.0460   -5.8400   -0.7840 hc        1 MOL      0.097677
    141 H66         8.3510   -5.3380   -2.2330 hc        1 MOL      0.097677
    142 N13         7.5780   -2.1350   -2.3250 n         1 MOL     -0.433983
    143 C46         7.6720   -0.7870   -2.8890 c3        1 MOL      0.077901
    144 C47         6.9560    0.3410   -2.0930 c         1 MOL      0.284632
    145 O19         7.1350    1.5320   -2.3130 o         1 MOL     -0.523102
    146 C48         7.2720   -0.7380   -4.3560 c3        1 MOL     -0.352602
    147 H67         6.9520   -2.7220   -2.8440 hn        1 MOL      0.268981
    148 H68         8.7630   -0.7500   -2.8990 h1        1 MOL      0.122904
    149 H69         7.5270    0.2450   -4.7440 hc        1 MOL      0.111957
    150 H70         7.9070   -1.4730   -4.8380 hc        1 MOL      0.111957
    151 H71         6.1930   -0.9320   -4.3260 hc        1 MOL      0.111957
    152 N14         6.0670   -0.0010   -1.1670 n         1 MOL      0.222885
    153 C49         5.3720    0.8720   -0.2600 c3        1 MOL     -0.133519
    154 C50         6.1420    0.9700    1.0780 c         1 MOL      0.414129
    155 O20         6.3610    2.0840    1.6260 o         1 MOL     -0.572661
    156 C51         4.0030    0.3380   -0.0780 c3        1 MOL      0.077654
    157 C52         3.0680    0.6340   -1.3110 c3        1 MOL      0.055697
    158 C53         1.6160    0.1300   -1.2750 c         1 MOL      0.791803
    159 O21         0.8170    0.6150   -0.4560 o         1 MOL     -0.779604
    160 O22         1.2190   -0.6860   -2.0930 o         1 MOL     -0.779604
    161 H72         5.9270   -0.9980   -1.0490 hn        1 MOL     -0.091935
    162 H73         5.2940    1.8470   -0.7520 h1        1 MOL      0.089757
    163 H74         3.5670    0.8270    0.7920 hc        1 MOL      0.011720
    164 H75         4.0260   -0.7070    0.2340 hc        1 MOL      0.011720
    165 H76         3.5090    0.2110   -2.2030 hc        1 MOL     -0.046198
    166 H77         3.0020    1.7030   -1.4950 hc        1 MOL     -0.046198
    167 N15         6.6230   -0.1770    1.6520 n         1 MOL     -0.109326
    168 C54         7.3200   -0.2740    2.9750 c3        1 MOL     -0.149800
    169 H78         8.2210   -0.8760    2.8670 h1        1 MOL      0.080399
    170 H79         7.5900    0.7250    3.3180 h1        1 MOL      0.080399
    171 H80         6.6560   -0.7420    3.7010 h1        1 MOL      0.080399
    172 H81         6.3820   -1.0520    1.2130 hn        1 MOL      0.099466
    173 Ca1        -1.4470   -0.1220   -1.5180 Ca        1 MOL      1.571666
    174 O23        -1.0950   -0.8570   -4.0990 oh        1 MOL     -0.804466
    175 H82        -1.4800   -0.6590   -4.9480 ho        1 MOL      0.391562
    176 H83        -0.4560   -1.5470   -4.2840 ho        1 MOL      0.391562
    177 O24        -0.9750   -2.9020   -1.9610 oh        1 MOL     -0.804466
    178 H84        -0.0630   -3.1740   -1.8960 ho        1 MOL      0.391562
    179 H85        -1.2810   -3.2670   -2.7890 ho        1 MOL      0.391562
@<TRIPOS>BOND
     1    1    2 1   
     2    1    4 1   
     3    1    5 1   
     4    1    6 1   
     5    2    3 2   
     6    2    7 1   
     7    7    8 1   
     8    7   15 1   
     9    8    9 1   
    10    8   11 1   
    11    8   16 1   
    12    9   10 2   
    13    9   19 1   
    14   11   12 1   
    15   11   17 1   
    16   11   18 1   
    17   12   13 1   
    18   12   14 1   
    19   19   20 1   
    20   19   28 1   
    21   20   21 1   
    22   20   23 1   
    23   20   29 1   
    24   21   22 2   
    25   21   41 1   
    26   23   24 1   
    27   23   30 1   
    28   23   31 1   
    29   24   25 1   
    30   24   32 1   
    31   24   33 1   
    32   25   26 1   
    33   25   34 1   
    34   25   35 1   
    35   26   27 1   
    36   26   36 1   
    37   26   37 1   
    38   27   38 1   
    39   27   39 1   
    40   27   40 1   
    41   41   42 1   
    42   41   49 1   
    43   42   43 1   
    44   42   45 1   
    45   42   50 1   
    46   43   44 2   
    47   43   53 1   
    48   45   46 1   
    49   45   51 1   
    50   45   52 1   
    51   46   47 1   
    52   46   48 1   
    53   53   54 1   
    54   53   57 1   
    55   54   55 1   
    56   54   58 1   
    57   54   59 1   
    58   55   56 2   
    59   55   60 1   
    60   60   61 1   
    61   60   68 1   
    62   61   62 1   
    63   61   64 1   
    64   61   69 1   
    65   62   63 2   
    66   62   74 1   
    67   64   65 1   
    68   64   70 1   
    69   64   71 1   
    70   65   66 1   
    71   65   67 2   
    72   66   72 1   
    73   66   73 1   
    74   74   75 1   
    75   74   78 1   
    76   75   76 1   
    77   75   79 1   
    78   75   80 1   
    79   76   77 2   
    80   76   81 1   
    81   81   82 1   
    82   81   93 1   
    83   82   83 1   
    84   82   85 1   
    85   82   94 1   
    86   83   84 2   
    87   83  102 1   
    88   85   86 1   
    89   85   95 1   
    90   85   96 1   
    91   86   87 ar  
    92   86   88 ar  
    93   87   89 ar  
    94   87   97 1   
    95   88   90 ar  
    96   88   98 1   
    97   89   91 ar  
    98   89   99 1   
    99   90   91 ar  
   100   90  100 1   
   101   91   92 1   
   102   92  101 1   
   103  102  103 1   
   104  102  110 1   
   105  103  104 1   
   106  103  106 1   
   107  103  111 1   
   108  104  105 2   
   109  104  121 1   
   110  106  107 1   
   111  106  108 1   
   112  106  112 1   
   113  107  109 1   
   114  107  113 1   
   115  107  114 1   
   116  108  115 1   
   117  108  116 1   
   118  108  117 1   
   119  109  118 1   
   120  109  119 1   
   121  109  120 1   
   122  121  122 1   
   123  121  127 1   
   124  122  123 1   
   125  122  125 1   
   126  122  128 1   
   127  123  124 2   
   128  123  132 1   
   129  125  126 1   
   130  125  129 1   
   131  125  130 1   
   132  126  131 1   
   133  132  133 1   
   134  132  137 1   
   135  133  134 1   
   136  133  136 1   
   137  133  138 1   
   138  134  135 2   
   139  134  142 1   
   140  136  139 1   
   141  136  140 1   
   142  136  141 1   
   143  142  143 1   
   144  142  147 1   
   145  143  144 1   
   146  143  146 1   
   147  143  148 1   
   148  144  145 2   
   149  144  152 1   
   150  146  149 1   
   151  146  150 1   
   152  146  151 1   
   153  152  153 1   
   154  152  161 1   
   155  153  154 1   
   156  153  156 1   
   157  153  162 1   
   158  154  155 2   
   159  154  167 1   
   160  156  157 1   
   161  156  163 1   
   162  156  164 1   
   163  157  158 1   
   164  157  165 1   
   165  157  166 1   
   166  158  159 1   
   167  158  160 1   
   168  167  168 1   
   169  167  172 1   
   170  168  169 1   
   171  168  170 1   
   172  168  171 1   
   173  174  175 1   
   174  174  176 1   
   175  177  178 1   
   176  177  179 1   
@<TRIPOS>SUBSTRUCTURE
     1 MOL         1 TEMP              0 ****  ****    0 ROOT
