@<TRIPOS>MOLECULE
MOL
  172   171     1     0     0
SMALL
resp


@<TRIPOS>ATOM
      1 C1          0.0460   -3.0010    5.8410 c3        1 MOL     -0.357059
      2 C2          0.6490   -2.9870    4.4020 c         1 MOL      0.753787
      3 O1         -0.1360   -3.4220    3.5610 o         1 MOL     -0.559637
      4 H1         -1.0290   -3.1700    5.7810 hc        1 MOL      0.080777
      5 H2          0.5070   -3.8010    6.4210 hc        1 MOL      0.080777
      6 H3          0.2380   -2.0430    6.3240 hc        1 MOL      0.080777
      7 N1          1.8860   -2.6700    4.1230 n         1 MOL     -0.676252
      8 C3          2.3570   -2.4670    2.7540 c3        1 MOL      0.158624
      9 C4          2.5210   -3.8260    2.0740 c         1 MOL      0.646553
     10 O2          3.1730   -4.7080    2.6370 o         1 MOL     -0.613315
     11 C5          3.6780   -1.7210    2.8830 c3        1 MOL     -0.099173
     12 C6          3.9920   -1.0190    1.4980 c         1 MOL      0.619479
     13 O3          3.2440   -1.1410    0.5340 o         1 MOL     -0.664991
     14 O4          4.9620   -0.2250    1.5180 o         1 MOL     -0.664991
     15 H4          2.3490   -2.1250    4.8360 hn        1 MOL      0.318891
     16 H5          1.6350   -1.8280    2.2320 h1        1 MOL      0.015853
     17 H6          4.4060   -2.4460    3.2440 hc        1 MOL      0.039510
     18 H7          3.6630   -1.0300    3.7280 hc        1 MOL      0.039510
     19 N2          2.0210   -3.9560    0.8570 n         1 MOL     -0.508172
     20 C7          2.0340   -5.1570    0.0670 c3        1 MOL      0.297482
     21 C8          3.2120   -5.2090   -0.9170 c         1 MOL      0.331030
     22 O5          3.3840   -6.2940   -1.5390 o         1 MOL     -0.553804
     23 C9          0.6320   -5.3120   -0.5790 c3        1 MOL     -0.260681
     24 H8          1.5750   -3.1580    0.4180 hn        1 MOL      0.278632
     25 H9          2.2270   -6.0040    0.7160 h1        1 MOL      0.017514
     26 H10        -0.1010   -5.5500    0.1890 hc        1 MOL      0.066699
     27 H11         0.3250   -4.4620   -1.1980 hc        1 MOL      0.066699
     28 H12         0.5920   -6.1940   -1.2150 hc        1 MOL      0.066699
     29 N3          3.8970   -4.0710   -1.1560 n         1 MOL     -0.175429
     30 C10         4.9840   -3.9390   -2.0420 c3        1 MOL      0.029153
     31 C11         6.2040   -3.2960   -1.4230 c         1 MOL      0.363386
     32 O6          7.2780   -3.3900   -2.0200 o         1 MOL     -0.525657
     33 C12         4.6120   -3.2670   -3.3200 c3        1 MOL      0.199429
     34 C13         3.6810   -2.0980   -3.3780 c         1 MOL      0.579140
     35 O7          3.4990   -1.3770   -2.3590 o         1 MOL     -0.689570
     36 O8          3.1490   -1.8040   -4.4850 o         1 MOL     -0.689570
     37 H13         3.5910   -3.1930   -0.7480 hn        1 MOL      0.165106
     38 H14         5.3290   -4.9330   -2.3350 h1        1 MOL      0.063910
     39 H15         4.1910   -4.0280   -3.9720 hc        1 MOL     -0.055661
     40 H16         5.5620   -3.0730   -3.8370 hc        1 MOL     -0.055661
     41 N4          6.1250   -2.6510   -0.2440 n         1 MOL     -0.149872
     42 C14         7.2160   -2.0240    0.5650 c3        1 MOL     -0.087586
     43 C15         7.8170   -0.7400   -0.0210 c         1 MOL      0.546373
     44 O9          9.0160   -0.5200   -0.0150 o         1 MOL     -0.578612
     45 H17         5.1950   -2.6300    0.1400 hn        1 MOL      0.064160
     46 H18         8.0710   -2.7020    0.5810 h1        1 MOL      0.068312
     47 H19         6.8720   -1.7860    1.5720 h1        1 MOL      0.068312
     48 N5          6.9030    0.0650   -0.5870 n         1 MOL     -0.202350
     49 C16         7.0560    1.4240   -1.1790 c3        1 MOL     -0.106336
     50 C17         6.7130    2.5950   -0.2140 c         1 MOL      0.374648
     51 O10         6.9310    3.7790   -0.5010 o         1 MOL     -0.558621
     52 C18         6.2950    1.5420   -2.4620 c3        1 MOL     -0.167238
     53 C19         4.8820    2.0520   -2.2190 c         1 MOL      0.525504
     54 N6          4.4540    3.0970   -2.8650 n         1 MOL     -0.662986
     55 O11         4.1090    1.5680   -1.3610 o         1 MOL     -0.538636
     56 H20         5.9400   -0.2050   -0.4230 hn        1 MOL      0.128293
     57 H21         8.1130    1.5490   -1.4290 h1        1 MOL      0.131465
     58 H22         6.1300    0.5490   -2.8900 hc        1 MOL      0.100134
     59 H23         6.7840    2.1220   -3.2420 hc        1 MOL      0.100134
     60 H24         5.1410    3.7080   -3.2880 hn        1 MOL      0.335042
     61 H25         3.5340    3.4020   -2.6000 hn        1 MOL      0.335042
     62 N7          6.1320    2.3030    0.9150 n         1 MOL     -0.042763
     63 C20         5.8530    3.1570    2.0610 c3        1 MOL     -0.144670
     64 C21         4.8150    4.2070    1.8520 c         1 MOL      0.544980
     65 O12         4.7900    5.2250    2.5750 o         1 MOL     -0.579736
     66 H26         5.9580    1.3110    0.9570 hn        1 MOL      0.141866
     67 H27         6.7840    3.5940    2.4210 h1        1 MOL      0.084152
     68 H28         5.4770    2.5320    2.8810 h1        1 MOL      0.084152
     69 N8          3.9150    4.0280    0.8570 n         1 MOL     -0.135777
     70 C22         2.6230    4.7420    0.7350 c3        1 MOL     -0.361286
     71 C23         1.5210    3.6010    0.7590 c         1 MOL      0.639626
     72 O13         1.7340    2.5130    0.3260 o         1 MOL     -0.543585
     73 C24         2.4770    5.6150   -0.4900 c3        1 MOL      0.336806
     74 C25         3.7780    6.3670   -0.7060 c3        1 MOL     -0.284668
     75 O14         2.2020    4.8270   -1.6160 oh        1 MOL     -0.576733
     76 H29         3.9840    3.1950    0.2870 hn        1 MOL      0.188727
     77 H30         2.5470    5.3640    1.6260 h1        1 MOL      0.142261
     78 H31         1.6990    6.3790   -0.4240 h1        1 MOL      0.013760
     79 H32         2.2530    5.4400   -2.3550 ho        1 MOL      0.386671
     80 H33         3.5810    7.2370   -1.3310 hc        1 MOL      0.072242
     81 H34         4.1630    6.7500    0.2410 hc        1 MOL      0.072242
     82 H35         4.5270    5.7270   -1.1690 hc        1 MOL      0.072242
     83 N9          0.3370    3.8920    1.3210 n         1 MOL     -0.378179
     84 C26        -0.7800    2.9160    1.3980 c3        1 MOL     -0.282769
     85 C27        -1.6790    3.1340    0.1360 c         1 MOL      0.646586
     86 O15        -2.1030    4.2570   -0.1570 o         1 MOL     -0.615740
     87 C28        -1.5620    3.1120    2.7740 c3        1 MOL      0.380231
     88 C29        -0.7380    3.3490    4.0530 c3        1 MOL      0.171735
     89 C30        -2.4030    1.8990    2.9940 c3        1 MOL     -0.428143
     90 C31        -1.5110    4.2260    5.0200 c3        1 MOL     -0.115695
     91 H36         0.1650    4.8010    1.7320 hn        1 MOL      0.261199
     92 H37        -0.3650    1.9090    1.3150 h1        1 MOL      0.120910
     93 H38        -2.1650    4.0100    2.6870 hc        1 MOL     -0.049830
     94 H39         0.2290    3.7760    3.8030 hc        1 MOL     -0.050469
     95 H40        -0.5480    2.3860    4.5350 hc        1 MOL     -0.050469
     96 H41        -2.8670    2.0090    3.9700 hc        1 MOL      0.076646
     97 H42        -3.2760    1.8050    2.3480 hc        1 MOL      0.076646
     98 H43        -1.8130    0.9880    3.1290 hc        1 MOL      0.076646
     99 H44        -2.5250    3.8880    5.2650 hc        1 MOL      0.008081
    100 H45        -0.9120    4.3060    5.9270 hc        1 MOL      0.008081
    101 H46        -1.5280    5.2120    4.5550 hc        1 MOL      0.008081
    102 N10        -1.9980    2.0090   -0.4580 n         1 MOL     -0.283760
    103 C32        -3.0100    1.8010   -1.5320 c3        1 MOL      0.167922
    104 C33        -4.3740    1.3650   -0.9470 c         1 MOL      0.245893
    105 O16        -4.3820    0.8570    0.1200 o         1 MOL     -0.164465
    106 C34        -2.5460    0.6870   -2.4920 c3        1 MOL     -0.413449
    107 C35        -1.1100    0.8320   -3.1450 c         1 MOL      0.877801
    108 O17        -0.9580    1.7230   -3.9800 o         1 MOL     -0.727098
    109 O18        -0.2020    0.1210   -2.8170 o         1 MOL     -0.727098
    110 H47        -1.7140    1.1890    0.0590 hn        1 MOL      0.044284
    111 H48        -3.0250    2.6880   -2.1540 h1        1 MOL      0.056684
    112 H49        -3.3430    0.7120   -3.2340 hc        1 MOL      0.091269
    113 H50        -2.4790   -0.2350   -1.9160 hc        1 MOL      0.091269
    114 N11        -5.5120    1.4720   -1.6390 n         1 MOL     -0.549736
    115 C36        -6.7830    1.1400   -0.9940 c3        1 MOL      0.286594
    116 C37        -6.9610   -0.3390   -0.6320 c         1 MOL      0.271474
    117 O19        -7.6970   -0.5520    0.2990 o         1 MOL     -0.457632
    118 C38        -7.8450    1.6520   -1.9830 c3        1 MOL     -0.198634
    119 C39        -9.2740    1.3900   -1.6230 ca        1 MOL     -0.041111
    120 C40       -10.0450    0.5380   -2.4130 ca        1 MOL     -0.014218
    121 C41        -9.8700    2.0460   -0.4500 ca        1 MOL     -0.014218
    122 C42       -11.4530    0.3850   -2.1860 ca        1 MOL     -0.250175
    123 C43       -11.2150    1.8600   -0.1960 ca        1 MOL     -0.250175
    124 C44       -11.9530    1.0140   -1.0360 ca        1 MOL      0.026875
    125 H51        -5.5010    1.8410   -2.5740 hn        1 MOL      0.322673
    126 H52        -6.8850    1.7800   -0.1210 h1        1 MOL      0.080664
    127 H53        -7.5790    1.2540   -2.9630 hc        1 MOL      0.066316
    128 H54        -7.7510    2.7310   -2.0930 hc        1 MOL      0.066316
    129 H55        -9.6740    0.0720   -3.3100 ha        1 MOL      0.089485
    130 H56        -9.3130    2.7380    0.1510 ha        1 MOL      0.089485
    131 H57       -12.0390   -0.2980   -2.7870 ha        1 MOL      0.142381
    132 H58       -11.7320    2.4020    0.5820 ha        1 MOL      0.142381
    133 H59       -13.0140    0.9110   -0.8420 ha        1 MOL      0.057751
    134 N12        -6.4350   -1.3480   -1.3530 n         1 MOL     -0.051802
    135 C45        -6.4550   -2.7140   -0.8360 c3        1 MOL      0.053074
    136 C46        -5.5950   -2.8520    0.4740 c         1 MOL      0.265036
    137 O20        -6.0220   -3.5460    1.4550 o         1 MOL     -0.461826
    138 C47        -5.9620   -3.5130   -1.9990 c3        1 MOL     -0.019408
    139 C48        -6.0160   -2.6430   -3.3040 c3        1 MOL     -0.117182
    140 C49        -5.8340   -1.3060   -2.6970 c3        1 MOL     -0.068868
    141 H60        -7.4890   -2.9780   -0.6460 h1        1 MOL      0.056054
    142 H61        -4.9260   -3.7820   -1.8130 hc        1 MOL      0.026973
    143 H62        -6.5070   -4.4540   -2.1020 hc        1 MOL      0.026973
    144 H63        -5.1590   -2.8770   -3.9420 hc        1 MOL      0.056982
    145 H64        -6.8220   -2.7570   -4.0310 hc        1 MOL      0.056982
    146 H65        -4.7590   -1.1230   -2.6490 h1        1 MOL      0.058091
    147 H66        -6.2810   -0.5450   -3.3390 h1        1 MOL      0.058091
    148 N13        -4.4590   -2.1350    0.5820 n         1 MOL     -0.166761
    149 C50        -3.7410   -2.1160    1.8980 c3        1 MOL     -0.075119
    150 C51        -4.6290   -1.3870    2.9510 c         1 MOL      0.324205
    151 O21        -4.8710   -1.8380    4.0580 o         1 MOL     -0.521674
    152 C52        -2.3590   -1.4780    1.6320 c3        1 MOL     -0.025334
    153 C53        -1.5910   -2.1540    0.5100 c3        1 MOL     -0.083000
    154 C54        -0.3050   -1.4510    0.0800 c         1 MOL      0.776373
    155 O22         0.5480   -2.0550   -0.5770 o         1 MOL     -0.726901
    156 O23        -0.1700   -0.2380    0.2910 o         1 MOL     -0.726901
    157 H67        -4.0250   -1.7410   -0.2400 hn        1 MOL      0.274648
    158 H68        -3.5350   -3.0610    2.4030 h1        1 MOL      0.123132
    159 H69        -1.7370   -1.5350    2.5360 hc        1 MOL      0.061463
    160 H70        -2.4230   -0.4070    1.4130 hc        1 MOL      0.061463
    161 H71        -2.1730   -2.2480   -0.4020 hc        1 MOL      0.005840
    162 H72        -1.3030   -3.1390    0.8790 hc        1 MOL      0.005840
    163 N14        -5.4000   -0.3110    2.6250 n         1 MOL      0.130053
    164 C55        -6.4420    0.3570    3.4710 c3        1 MOL     -0.202059
    165 H73        -7.4310    0.0130    3.1680 h1        1 MOL      0.074365
    166 H74        -6.2760    0.1070    4.5190 h1        1 MOL      0.074365
    167 H75        -6.3780    1.4380    3.3410 h1        1 MOL      0.074365
    168 H76        -5.1430    0.0140    1.7040 hn        1 MOL     -0.106023
    169 Ca1         1.8720    0.1860   -1.1620 Ca        1 MOL      1.751860
    170 O24         1.4960    2.3160   -2.8410 oh        1 MOL     -0.879945
    171 H77         0.7720    2.0920   -3.4200 ho        1 MOL      0.400900
    172 H78         1.5040    3.2750   -2.8460 ho        1 MOL      0.400900
@<TRIPOS>BOND
     1    1    2 1   
     2    1    4 1   
     3    1    5 1   
     4    1    6 1   
     5    2    3 2   
     6    2    7 1   
     7    7    8 1   
     8    7   15 1   
     9    8    9 1   
    10    8   11 1   
    11    8   16 1   
    12    9   10 2   
    13    9   19 1   
    14   11   12 1   
    15   11   17 1   
    16   11   18 1   
    17   12   13 1   
    18   12   14 1   
    19   19   20 1   
    20   19   24 1   
    21   20   21 1   
    22   20   23 1   
    23   20   25 1   
    24   21   22 2   
    25   21   29 1   
    26   23   26 1   
    27   23   27 1   
    28   23   28 1   
    29   29   30 1   
    30   29   37 1   
    31   30   31 1   
    32   30   33 1   
    33   30   38 1   
    34   31   32 2   
    35   31   41 1   
    36   33   34 1   
    37   33   39 1   
    38   33   40 1   
    39   34   35 1   
    40   34   36 1   
    41   41   42 1   
    42   41   45 1   
    43   42   43 1   
    44   42   46 1   
    45   42   47 1   
    46   43   44 2   
    47   43   48 1   
    48   48   49 1   
    49   48   56 1   
    50   49   50 1   
    51   49   52 1   
    52   49   57 1   
    53   50   51 2   
    54   50   62 1   
    55   52   53 1   
    56   52   58 1   
    57   52   59 1   
    58   53   54 1   
    59   53   55 2   
    60   54   60 1   
    61   54   61 1   
    62   62   63 1   
    63   62   66 1   
    64   63   64 1   
    65   63   67 1   
    66   63   68 1   
    67   64   65 2   
    68   64   69 1   
    69   69   70 1   
    70   69   76 1   
    71   70   71 1   
    72   70   73 1   
    73   70   77 1   
    74   71   72 2   
    75   71   83 1   
    76   73   74 1   
    77   73   75 1   
    78   73   78 1   
    79   74   80 1   
    80   74   81 1   
    81   74   82 1   
    82   75   79 1   
    83   83   84 1   
    84   83   91 1   
    85   84   85 1   
    86   84   87 1   
    87   84   92 1   
    88   85   86 2   
    89   85  102 1   
    90   87   88 1   
    91   87   89 1   
    92   87   93 1   
    93   88   90 1   
    94   88   94 1   
    95   88   95 1   
    96   89   96 1   
    97   89   97 1   
    98   89   98 1   
    99   90   99 1   
   100   90  100 1   
   101   90  101 1   
   102  102  103 1   
   103  102  110 1   
   104  103  104 1   
   105  103  106 1   
   106  103  111 1   
   107  104  105 2   
   108  104  114 1   
   109  106  107 1   
   110  106  112 1   
   111  106  113 1   
   112  107  108 1   
   113  107  109 1   
   114  114  115 1   
   115  114  125 1   
   116  115  116 1   
   117  115  118 1   
   118  115  126 1   
   119  116  117 2   
   120  116  134 1   
   121  118  119 1   
   122  118  127 1   
   123  118  128 1   
   124  119  120 ar  
   125  119  121 ar  
   126  120  122 ar  
   127  120  129 1   
   128  121  123 ar  
   129  121  130 1   
   130  122  124 ar  
   131  122  131 1   
   132  123  124 ar  
   133  123  132 1   
   134  124  133 1   
   135  134  135 1   
   136  134  140 1   
   137  135  136 1   
   138  135  138 1   
   139  135  141 1   
   140  136  137 2   
   141  136  148 1   
   142  138  139 1   
   143  138  142 1   
   144  138  143 1   
   145  139  140 1   
   146  139  144 1   
   147  139  145 1   
   148  140  146 1   
   149  140  147 1   
   150  148  149 1   
   151  148  157 1   
   152  149  150 1   
   153  149  152 1   
   154  149  158 1   
   155  150  151 2   
   156  150  163 1   
   157  152  153 1   
   158  152  159 1   
   159  152  160 1   
   160  153  154 1   
   161  153  161 1   
   162  153  162 1   
   163  154  155 1   
   164  154  156 1   
   165  163  164 1   
   166  163  168 1   
   167  164  165 1   
   168  164  166 1   
   169  164  167 1   
   170  170  171 1   
   171  170  172 1   
@<TRIPOS>SUBSTRUCTURE
     1 MOL         1 TEMP              0 ****  ****    0 ROOT
