@<TRIPOS>MOLECULE
MOL
  189   185     1     0     0
SMALL
resp


@<TRIPOS>ATOM
      1 C1          0.0400    2.7910    6.1720 c3        1 MOL     -0.353481
      2 C2         -0.6940    2.4580    4.8450 c         1 MOL      0.644238
      3 O1         -0.6690    1.2790    4.3760 o         1 MOL     -0.580575
      4 H1          1.0750    3.0560    5.9580 hc        1 MOL      0.096099
      5 H2         -0.4560    3.6290    6.6620 hc        1 MOL      0.096099
      6 H3          0.0170    1.9210    6.8280 hc        1 MOL      0.096099
      7 N1         -1.3450    3.4710    4.2280 n         1 MOL     -0.536219
      8 C3         -2.0760    3.3460    3.0040 c3        1 MOL      0.200809
      9 C4         -2.1170    4.5560    2.0540 c         1 MOL      0.586467
     10 O2         -2.2700    5.6440    2.4800 o         1 MOL     -0.582068
     11 C5         -3.5130    2.8450    3.3810 c3        1 MOL     -0.227699
     12 C6         -4.2650    2.2690    2.1480 c         1 MOL      0.668149
     13 O3         -5.5170    2.1170    2.2190 o         1 MOL     -0.664445
     14 O4         -3.6440    2.0320    1.0460 o         1 MOL     -0.664445
     15 H4         -1.3550    4.3490    4.7350 hn        1 MOL      0.300677
     16 H5         -1.6300    2.5140    2.4650 h1        1 MOL      0.009058
     17 H6         -3.9780    3.6980    3.8780 hc        1 MOL      0.057175
     18 H7         -3.5350    2.0660    4.1480 hc        1 MOL      0.057175
     19 N2         -1.9550    4.3750    0.7020 n         1 MOL     -0.307232
     20 C7         -1.9540    5.4080   -0.3570 c3        1 MOL     -0.264841
     21 C8         -3.0890    5.2250   -1.3690 c         1 MOL      0.773943
     22 O5         -3.4500    6.1530   -2.0750 o         1 MOL     -0.620054
     23 C9         -0.5680    5.4110   -1.0250 c3        1 MOL      0.420697
     24 C10         0.5250    5.8470   -0.0040 c3        1 MOL     -0.014363
     25 C11        -0.5270    6.3950   -2.2410 c3        1 MOL     -0.454024
     26 C12         1.9450    5.6090   -0.3820 c3        1 MOL     -0.128721
     27 H8         -1.8020    3.4160    0.4180 hn        1 MOL      0.106316
     28 H9         -2.1640    6.2720    0.2710 h1        1 MOL      0.103173
     29 H10        -0.4060    4.4490   -1.4970 hc        1 MOL     -0.009062
     30 H11         0.3640    5.3440    0.9450 hc        1 MOL     -0.020178
     31 H12         0.3800    6.9200    0.0850 hc        1 MOL     -0.020178
     32 H13         0.4560    6.4600   -2.7120 hc        1 MOL      0.097060
     33 H14        -1.1610    5.9570   -3.0060 hc        1 MOL      0.097060
     34 H15        -0.8760    7.3630   -1.8810 hc        1 MOL      0.097060
     35 H16         2.1490    4.5910   -0.7180 hc        1 MOL      0.036333
     36 H17         2.3190    6.1880   -1.2250 hc        1 MOL      0.036333
     37 H18         2.5230    5.9200    0.4850 hc        1 MOL      0.036333
     38 N3         -3.8390    4.0990   -1.3440 n         1 MOL     -0.595381
     39 C13        -4.8300    3.7370   -2.4220 c3        1 MOL      0.079129
     40 C14        -6.0860    3.0300   -1.9870 c         1 MOL      0.346777
     41 O6         -7.0220    2.8980   -2.8040 o         1 MOL     -0.525140
     42 C15        -4.1440    2.8590   -3.5420 c3        1 MOL     -0.355506
     43 C16        -3.3420    1.6810   -3.0170 c         1 MOL      0.846367
     44 O7         -3.4330    1.3460   -1.8350 o         1 MOL     -0.726452
     45 O8         -2.5750    1.0640   -3.7780 o         1 MOL     -0.726452
     46 H19        -3.6270    3.3850   -0.6590 hn        1 MOL      0.371665
     47 H20        -5.1320    4.7050   -2.8050 h1        1 MOL      0.108301
     48 H21        -3.4240    3.5050   -4.0420 hc        1 MOL      0.097004
     49 H22        -4.8500    2.5080   -4.2920 hc        1 MOL      0.097004
     50 N4         -6.1800    2.4870   -0.7560 n         1 MOL     -0.120716
     51 C17        -7.3860    1.8340   -0.2640 c3        1 MOL     -0.190000
     52 C18        -7.6960    0.4780   -0.9070 c         1 MOL      0.417102
     53 O9         -8.8800    0.1130   -1.0880 o         1 MOL     -0.576023
     54 H23        -5.3350    2.4590   -0.2090 hn        1 MOL      0.120905
     55 H24        -8.3090    2.3690   -0.4710 h1        1 MOL      0.108239
     56 H25        -7.2940    1.6740    0.8110 h1        1 MOL      0.108239
     57 N5         -6.7110   -0.2980   -1.3940 n         1 MOL     -0.077281
     58 C19        -6.8740   -1.5690   -2.0650 c3        1 MOL     -0.121565
     59 C20        -7.1010   -2.7460   -1.1180 c         1 MOL      0.420829
     60 O10        -7.6870   -3.7710   -1.4480 o         1 MOL     -0.565346
     61 C21        -5.6630   -1.7690   -3.0040 c3        1 MOL     -0.180564
     62 C22        -4.3790   -2.1010   -2.2570 c         1 MOL      0.754818
     63 O11        -4.2340   -1.6390   -1.1060 o         1 MOL     -0.671246
     64 O12        -3.4820   -2.5800   -2.9370 o         1 MOL     -0.671246
     65 H26        -5.7550    0.0320   -1.3370 hn        1 MOL      0.187010
     66 H27        -7.7380   -1.5750   -2.7430 h1        1 MOL      0.121019
     67 H28        -5.4970   -0.8420   -3.5520 hc        1 MOL      0.058420
     68 H29        -5.7790   -2.5520   -3.7560 hc        1 MOL      0.058420
     69 N6         -6.7190   -2.6480    0.1630 n         1 MOL     -0.136950
     70 C23        -6.8430   -3.6900    1.2160 c3        1 MOL     -0.180530
     71 C24        -5.4780   -4.4210    1.4000 c         1 MOL      0.540802
     72 O13        -5.5110   -5.4130    2.0940 o         1 MOL     -0.584130
     73 H30        -6.2580   -1.7810    0.4270 hn        1 MOL      0.131436
     74 H31        -7.5070   -4.4970    0.9110 h1        1 MOL      0.102571
     75 H32        -7.1930   -3.2660    2.1600 h1        1 MOL      0.102571
     76 N7         -4.3180   -4.0560    0.7580 n         1 MOL     -0.266269
     77 C25        -2.9550   -4.7080    0.9620 c3        1 MOL      0.016186
     78 C26        -1.8780   -3.6980    1.2790 c         1 MOL      0.479936
     79 O14        -2.0970   -2.5540    0.8530 o         1 MOL     -0.546856
     80 C27        -2.5950   -5.3030   -0.4290 c3        1 MOL      0.016645
     81 C28        -3.7300   -6.2240   -1.0100 c3        1 MOL     -0.327019
     82 C29        -3.3820   -6.5610   -2.4630 c         1 MOL      0.613062
     83 N8         -3.4600   -5.6060   -3.3650 n         1 MOL     -0.730265
     84 O15        -3.1450   -7.7460   -2.7990 o         1 MOL     -0.606959
     85 H33        -4.2830   -3.3030    0.0860 hn        1 MOL      0.143815
     86 H34        -2.9690   -5.4700    1.7420 h1        1 MOL      0.044762
     87 H35        -1.6240   -5.7850   -0.3560 hc        1 MOL      0.041139
     88 H36        -2.5320   -4.4520   -1.1090 hc        1 MOL      0.041139
     89 H37        -4.7640   -5.9030   -1.0020 hc        1 MOL      0.121444
     90 H38        -3.7730   -7.1050   -0.3760 hc        1 MOL      0.121444
     91 H39        -3.6280   -4.6510   -3.0990 hn        1 MOL      0.347154
     92 H40        -3.6780   -5.9170   -4.3000 hn        1 MOL      0.347154
     93 N9         -0.7500   -4.0200    1.9140 n         1 MOL     -0.558396
     94 C30         0.2830   -3.0460    2.2690 c3        1 MOL      0.023880
     95 C31         1.5160   -3.1800    1.3370 c         1 MOL      0.602803
     96 O16         2.2340   -4.1460    1.3380 o         1 MOL     -0.584398
     97 C32         0.5490   -2.9850    3.8140 c3        1 MOL      0.296805
     98 C33         1.1520   -4.2500    4.4060 c3        1 MOL     -0.347270
     99 C34         1.4080   -1.7250    4.0260 c3        1 MOL     -0.347270
    100 H41        -0.5250   -4.9970    2.0440 hn        1 MOL      0.307886
    101 H42        -0.1600   -2.0700    2.0610 h1        1 MOL      0.097911
    102 H43        -0.4160   -2.8500    4.2950 hc        1 MOL     -0.019664
    103 H44         0.4180   -5.0400    4.5510 hc        1 MOL      0.068519
    104 H45         1.9970   -4.5680    3.8000 hc        1 MOL      0.068519
    105 H46         1.4090   -4.1470    5.4630 hc        1 MOL      0.068519
    106 H47         0.9760   -0.9150    3.4450 hc        1 MOL      0.068519
    107 H48         1.3320   -1.4470    5.0790 hc        1 MOL      0.068519
    108 H49         2.4650   -1.9000    3.8100 hc        1 MOL      0.068519
    109 N10         1.6180   -2.2030    0.4670 n         1 MOL     -0.178781
    110 C35         2.5700   -2.2200   -0.6270 c3        1 MOL     -0.013149
    111 C36         4.0620   -1.9320   -0.1830 c         1 MOL      0.319620
    112 O17         4.2570   -1.4340    0.9090 o         1 MOL     -0.268278
    113 C37         2.1730   -1.0870   -1.6210 c3        1 MOL     -0.150549
    114 C38         3.0970   -0.8440   -2.8270 c         1 MOL      0.679458
    115 N11         3.2240   -1.8650   -3.6020 n         1 MOL     -0.720251
    116 O18         3.7370    0.2250   -2.9170 o         1 MOL     -0.534676
    117 H50         1.1040   -1.3430    0.5750 hn        1 MOL      0.076088
    118 H51         2.6300   -3.2140   -1.0760 h1        1 MOL      0.039286
    119 H52         2.3230   -0.2410   -0.9420 hc        1 MOL      0.081027
    120 H53         1.1350   -1.1530   -1.9350 hc        1 MOL      0.081027
    121 H54         2.7820   -2.7300   -3.3280 hn        1 MOL      0.343063
    122 H55         3.8990   -1.8250   -4.3580 hn        1 MOL      0.343063
    123 N12         5.0740   -2.2480   -1.0220 n         1 MOL     -0.431099
    124 C39         6.5010   -1.9970   -0.6890 c3        1 MOL      0.385626
    125 C40         6.8120   -0.5080   -0.2550 c         1 MOL      0.380181
    126 O19         7.6360   -0.1780    0.5550 o         1 MOL     -0.513815
    127 C41         7.3190   -2.5380   -1.8880 c3        1 MOL     -0.103532
    128 C42         8.8330   -2.4720   -1.6430 ca        1 MOL     -0.050958
    129 C43         9.4000   -3.1400   -0.5770 ca        1 MOL     -0.146505
    130 C44         9.5420   -1.5810   -2.4370 ca        1 MOL     -0.146505
    131 C45        10.7870   -3.0770   -0.3240 ca        1 MOL     -0.147975
    132 C46        10.9470   -1.5680   -2.2180 ca        1 MOL     -0.147975
    133 C47        11.5970   -2.3130   -1.2050 ca        1 MOL      0.188985
    134 O20        12.9430   -2.1600   -0.9390 oh        1 MOL     -0.471180
    135 H56         4.8500   -2.7080   -1.8880 hn        1 MOL      0.214692
    136 H57         6.7370   -2.6090    0.1910 h1        1 MOL     -0.030739
    137 H58         7.0370   -2.0220   -2.8110 hc        1 MOL      0.038521
    138 H59         7.0270   -3.5860   -1.9300 hc        1 MOL      0.038521
    139 H60         8.8040   -3.8090    0.0320 ha        1 MOL      0.138134
    140 H61         9.0330   -1.0210   -3.2020 ha        1 MOL      0.138134
    141 H62        11.3090   -3.6420    0.4310 ha        1 MOL      0.109319
    142 H63        11.5150   -0.8830   -2.8380 ha        1 MOL      0.109319
    143 H64        13.4620   -1.8190   -1.6690 ho        1 MOL      0.355764
    144 N13         6.0910    0.4560   -0.8130 n         1 MOL     -0.171360
    145 C48         6.0990    1.9210   -0.4490 c3        1 MOL     -0.050617
    146 C49         5.2380    2.3580    0.8100 c         1 MOL      0.319370
    147 O21         5.4070    3.4040    1.4170 o         1 MOL     -0.517426
    148 C50         5.5170    2.6610   -1.6340 c3        1 MOL      0.020567
    149 C51         6.3640    2.7230   -2.9400 c3        1 MOL     -0.351215
    150 C52         5.9260    3.9350   -3.7250 c         1 MOL      0.778614
    151 O22         5.1130    3.8120   -4.6890 o         1 MOL     -0.754508
    152 O23         6.3740    5.0400   -3.4860 o         1 MOL     -0.754508
    153 H65         5.4220    0.1340   -1.5010 hn        1 MOL      0.124401
    154 H66         7.1510    2.1670   -0.3020 h1        1 MOL      0.119411
    155 H67         5.3920    3.6980   -1.3220 hc        1 MOL      0.063711
    156 H68         4.5290    2.2640   -1.8920 hc        1 MOL      0.063711
    157 H69         6.3140    1.7530   -3.4330 hc        1 MOL      0.045059
    158 H70         7.3940    2.8420   -2.6220 hc        1 MOL      0.045059
    159 N14         4.3370    1.4950    1.3250 n         1 MOL      0.020283
    160 C53         3.5000    1.6800    2.4870 c3        1 MOL     -0.059706
    161 C54         4.0820    0.8580    3.6970 c         1 MOL      0.485653
    162 O24         4.2370    1.3980    4.7880 o         1 MOL     -0.563318
    163 C55         2.0500    1.1480    2.1460 c3        1 MOL      0.004204
    164 C56         1.3750    1.8330    0.9850 c3        1 MOL     -0.083640
    165 C57         0.0800    1.1140    0.5740 c         1 MOL      0.517384
    166 O25        -0.8070    1.7570   -0.0470 o         1 MOL     -0.576319
    167 O26        -0.0820   -0.1240    0.7030 o         1 MOL     -0.576319
    168 H71         4.3000    0.6330    0.8010 hn        1 MOL     -0.062296
    169 H72         3.2770    2.7080    2.7770 h1        1 MOL      0.068999
    170 H73         1.4630    1.2690    3.0640 hc        1 MOL      0.045506
    171 H74         2.1260    0.0970    1.8940 hc        1 MOL      0.045506
    172 H75         2.0290    2.0070    0.1440 hc        1 MOL      0.045571
    173 H76         1.0930    2.8510    1.2630 hc        1 MOL      0.045571
    174 N15         4.5830   -0.3880    3.5250 n         1 MOL     -0.074625
    175 C58         5.3550   -1.1170    4.5490 c3        1 MOL     -0.272487
    176 H77         6.2760   -0.5740    4.7630 h1        1 MOL      0.097267
    177 H78         4.7630   -1.2000    5.4600 h1        1 MOL      0.097267
    178 H79         5.5990   -2.1130    4.1790 h1        1 MOL      0.097267
    179 H80         4.4500   -0.8380    2.6330 hn        1 MOL      0.044834
    180 Ca1        -2.6600   -0.1200    0.2230 Ca        1 MOL      1.752919
    181 O27        -2.0740   -0.3280    2.7900 oh        1 MOL     -0.865659
    182 H81        -1.5090    0.1910    3.3670 ho        1 MOL      0.405091
    183 H82        -2.2610   -1.1270    3.2850 ho        1 MOL      0.405091
    184 O28        -1.4920   -0.8310   -2.1000 oh        1 MOL     -0.865659
    185 H83        -1.9600   -1.5960   -2.4290 ho        1 MOL      0.405091
    186 H84        -1.7260   -0.1270   -2.7030 ho        1 MOL      0.405091
    187 O29        -5.1880   -0.4400    1.7060 oh        1 MOL     -0.865659
    188 H85        -5.5850    0.4270    1.8420 ho        1 MOL      0.405091
    189 H86        -5.2970   -0.8830    2.5510 ho        1 MOL      0.405091
@<TRIPOS>BOND
     1    1    2 1   
     2    1    4 1   
     3    1    5 1   
     4    1    6 1   
     5    2    3 2   
     6    2    7 1   
     7    7    8 1   
     8    7   15 1   
     9    8    9 1   
    10    8   11 1   
    11    8   16 1   
    12    9   10 2   
    13    9   19 1   
    14   11   12 1   
    15   11   17 1   
    16   11   18 1   
    17   12   13 1   
    18   12   14 1   
    19   19   20 1   
    20   19   27 1   
    21   20   21 1   
    22   20   23 1   
    23   20   28 1   
    24   21   22 2   
    25   21   38 1   
    26   23   24 1   
    27   23   25 1   
    28   23   29 1   
    29   24   26 1   
    30   24   30 1   
    31   24   31 1   
    32   25   32 1   
    33   25   33 1   
    34   25   34 1   
    35   26   35 1   
    36   26   36 1   
    37   26   37 1   
    38   38   39 1   
    39   38   46 1   
    40   39   40 1   
    41   39   42 1   
    42   39   47 1   
    43   40   41 2   
    44   40   50 1   
    45   42   43 1   
    46   42   48 1   
    47   42   49 1   
    48   43   44 1   
    49   43   45 1   
    50   50   51 1   
    51   50   54 1   
    52   51   52 1   
    53   51   55 1   
    54   51   56 1   
    55   52   53 2   
    56   52   57 1   
    57   57   58 1   
    58   57   65 1   
    59   58   59 1   
    60   58   61 1   
    61   58   66 1   
    62   59   60 2   
    63   59   69 1   
    64   61   62 1   
    65   61   67 1   
    66   61   68 1   
    67   62   63 1   
    68   62   64 1   
    69   69   70 1   
    70   69   73 1   
    71   70   71 1   
    72   70   74 1   
    73   70   75 1   
    74   71   72 2   
    75   71   76 1   
    76   76   77 1   
    77   76   85 1   
    78   77   78 1   
    79   77   80 1   
    80   77   86 1   
    81   78   79 2   
    82   78   93 1   
    83   80   81 1   
    84   80   87 1   
    85   80   88 1   
    86   81   82 1   
    87   81   89 1   
    88   81   90 1   
    89   82   83 1   
    90   82   84 2   
    91   83   91 1   
    92   83   92 1   
    93   93   94 1   
    94   93  100 1   
    95   94   95 1   
    96   94   97 1   
    97   94  101 1   
    98   95   96 2   
    99   95  109 1   
   100   97   98 1   
   101   97   99 1   
   102   97  102 1   
   103   98  103 1   
   104   98  104 1   
   105   98  105 1   
   106   99  106 1   
   107   99  107 1   
   108   99  108 1   
   109  109  110 1   
   110  109  117 1   
   111  110  111 1   
   112  110  113 1   
   113  110  118 1   
   114  111  112 2   
   115  111  123 1   
   116  113  114 1   
   117  113  119 1   
   118  113  120 1   
   119  114  115 1   
   120  114  116 2   
   121  115  121 1   
   122  115  122 1   
   123  123  124 1   
   124  123  135 1   
   125  124  125 1   
   126  124  127 1   
   127  124  136 1   
   128  125  126 2   
   129  125  144 1   
   130  127  128 1   
   131  127  137 1   
   132  127  138 1   
   133  128  129 ar  
   134  128  130 ar  
   135  129  131 ar  
   136  129  139 1   
   137  130  132 ar  
   138  130  140 1   
   139  131  133 ar  
   140  131  141 1   
   141  132  133 ar  
   142  132  142 1   
   143  133  134 1   
   144  134  143 1   
   145  144  145 1   
   146  144  153 1   
   147  145  146 1   
   148  145  148 1   
   149  145  154 1   
   150  146  147 2   
   151  146  159 1   
   152  148  149 1   
   153  148  155 1   
   154  148  156 1   
   155  149  150 1   
   156  149  157 1   
   157  149  158 1   
   158  150  151 1   
   159  150  152 1   
   160  159  160 1   
   161  159  168 1   
   162  160  161 1   
   163  160  163 1   
   164  160  169 1   
   165  161  162 2   
   166  161  174 1   
   167  163  164 1   
   168  163  170 1   
   169  163  171 1   
   170  164  165 1   
   171  164  172 1   
   172  164  173 1   
   173  165  166 1   
   174  165  167 1   
   175  174  175 1   
   176  174  179 1   
   177  175  176 1   
   178  175  177 1   
   179  175  178 1   
   180  181  182 1   
   181  181  183 1   
   182  184  185 1   
   183  184  186 1   
   184  187  188 1   
   185  187  189 1   
@<TRIPOS>SUBSTRUCTURE
     1 MOL         1 TEMP              0 ****  ****    0 ROOT
