@<TRIPOS>MOLECULE
MOL
  189   185     1     0     0
SMALL
resp


@<TRIPOS>ATOM
      1 C1         -0.3740    2.0020    5.8940 c3        1 MOL     -0.336225
      2 C2         -0.5250    1.5980    4.3720 c         1 MOL      0.685641
      3 O1          0.1630    2.1080    3.4990 o         1 MOL     -0.609478
      4 H1         -0.6470    3.0500    6.0200 hc        1 MOL      0.091438
      5 H2         -1.0310    1.3800    6.5020 hc        1 MOL      0.091438
      6 H3          0.6600    1.8560    6.2090 hc        1 MOL      0.091438
      7 N1         -1.6120    0.9240    4.0390 n         1 MOL     -0.632813
      8 C3         -2.2890    0.9010    2.6850 c3        1 MOL      0.318624
      9 C4         -2.9200    2.3010    2.3570 c         1 MOL      0.433348
     10 O2         -4.0460    2.7160    2.7420 o         1 MOL     -0.539964
     11 C5         -3.3410   -0.2190    2.5930 c3        1 MOL     -0.428206
     12 C6         -4.1760   -0.2180    1.2750 c         1 MOL      0.751953
     13 O3         -5.2610   -0.8190    1.2590 o         1 MOL     -0.608886
     14 O4         -3.7090    0.4320    0.3130 o         1 MOL     -0.608886
     15 H4         -2.1640    0.5640    4.8020 hn        1 MOL      0.332386
     16 H5         -1.5700    0.6690    1.9030 h1        1 MOL      0.003186
     17 H6         -4.0170   -0.1520    3.4520 hc        1 MOL      0.088765
     18 H7         -2.7940   -1.1530    2.6570 hc        1 MOL      0.088765
     19 N2         -2.1110    3.1830    1.7920 n         1 MOL     -0.227350
     20 C7         -2.3570    4.6250    1.6440 c3        1 MOL     -0.028351
     21 C8         -3.4380    4.9630    0.5660 c         1 MOL      0.453522
     22 O5         -4.0320    6.0380    0.6010 o         1 MOL     -0.575324
     23 C9         -1.0680    5.4100    1.4250 c3        1 MOL     -0.061784
     24 C10        -1.1490    6.9210    1.0180 c3        1 MOL      0.041878
     25 C11         0.1080    7.7040    1.4800 c3        1 MOL      0.180085
     26 C12         0.1410    9.2110    1.0290 c3        1 MOL     -0.175864
     27 N3          0.0980    9.4180   -0.4060 n4        1 MOL     -0.249893
     28 H8         -1.2150    2.7560    1.5980 hn        1 MOL      0.239706
     29 H9         -2.7830    4.9500    2.5890 h1        1 MOL      0.088433
     30 H10        -0.4060    4.8170    0.7950 hc        1 MOL      0.047029
     31 H11        -0.5380    5.4620    2.3800 hc        1 MOL      0.047029
     32 H12        -1.9940    7.4040    1.5090 hc        1 MOL     -0.008000
     33 H13        -1.2300    7.0400   -0.0670 hc        1 MOL     -0.008000
     34 H14         0.9380    7.1600    1.0350 hc        1 MOL     -0.017446
     35 H15         0.2730    7.6900    2.5630 hc        1 MOL     -0.017446
     36 H16         1.0910    9.5510    1.4480 hx        1 MOL      0.131604
     37 H17        -0.6490    9.8060    1.4880 hx        1 MOL      0.131604
     38 H18         0.2240   10.3820   -0.7020 hn        1 MOL      0.302846
     39 H19         0.6730    8.8090   -0.9780 hn        1 MOL      0.302846
     40 H20        -0.8240    9.2620   -0.7800 hn        1 MOL      0.302846
     41 N4         -3.7070    4.0480   -0.4080 n         1 MOL     -0.262311
     42 C13        -4.6480    4.2180   -1.4790 c3        1 MOL      0.082982
     43 C14        -5.8370    3.1500   -1.4010 c         1 MOL      0.495322
     44 O6         -6.7260    3.2970   -2.1580 o         1 MOL     -0.543255
     45 C15        -3.9090    4.0530   -2.8490 c3        1 MOL     -0.339654
     46 C16        -2.8830    2.9050   -2.9630 c         1 MOL      0.825700
     47 O7         -2.1190    2.8390   -3.9620 o         1 MOL     -0.731208
     48 O8         -2.7520    2.1040   -2.0540 o         1 MOL     -0.731208
     49 H21        -3.0660    3.2810   -0.5290 hn        1 MOL      0.190374
     50 H22        -5.1330    5.1820   -1.3750 h1        1 MOL      0.063558
     51 H23        -3.3630    4.9740   -3.0580 hc        1 MOL      0.074434
     52 H24        -4.6750    4.0310   -3.6230 hc        1 MOL      0.074434
     53 N5         -5.7490    2.2100   -0.4650 n         1 MOL     -0.115615
     54 C17        -6.9940    1.6030    0.0210 c3        1 MOL     -0.314033
     55 C18        -7.4350    0.4040   -0.7820 c         1 MOL      0.595654
     56 O9         -8.5890    0.0110   -0.8000 o         1 MOL     -0.583063
     57 H25        -4.8440    2.0160   -0.0660 hn        1 MOL      0.067333
     58 H26        -7.7590    2.3750    0.0650 h1        1 MOL      0.142871
     59 H27        -6.7890    1.2760    1.0420 h1        1 MOL      0.142871
     60 N6         -6.5120   -0.2680   -1.4700 n         1 MOL     -0.298348
     61 C19        -6.7870   -1.5270   -2.2890 c3        1 MOL      0.046490
     62 C20        -7.0060   -2.7800   -1.4340 c         1 MOL      0.347538
     63 O10        -7.6150   -3.7440   -1.9710 o         1 MOL     -0.545179
     64 C21        -5.7440   -1.7680   -3.3840 c3        1 MOL     -0.251935
     65 C22        -4.3970   -1.4710   -2.8860 c         1 MOL      0.813524
     66 O11        -3.6540   -0.6320   -3.4000 o         1 MOL     -0.699087
     67 O12        -3.8120   -2.2240   -2.0490 o         1 MOL     -0.699087
     68 H28        -5.5620    0.0550   -1.4610 hn        1 MOL      0.149342
     69 H29        -7.7460   -1.3860   -2.7940 h1        1 MOL      0.101811
     70 H30        -5.9040   -1.1140   -4.2480 hc        1 MOL      0.081824
     71 H31        -5.8320   -2.8030   -3.7300 hc        1 MOL      0.081824
     72 N7         -6.4410   -2.8060   -0.2070 n         1 MOL     -0.036783
     73 C23        -6.5330   -4.0050    0.7130 c3        1 MOL     -0.192619
     74 C24        -5.1640   -4.6980    0.7050 c         1 MOL      0.530813
     75 O13        -5.0960   -5.8470    1.2200 o         1 MOL     -0.584886
     76 H32        -6.0700   -1.9300    0.1390 hn        1 MOL      0.151463
     77 H33        -7.2330   -4.7600    0.3700 h1        1 MOL      0.106814
     78 H34        -6.8280   -3.6310    1.6990 h1        1 MOL      0.106814
     79 N8         -4.1090   -4.1090    0.2020 n         1 MOL     -0.055812
     80 C25        -2.7360   -4.6560    0.3760 c3        1 MOL     -0.316912
     81 C26        -1.6550   -3.6170    0.7560 c         1 MOL      0.824843
     82 O14        -1.8010   -2.4370    0.4750 o         1 MOL     -0.655460
     83 C27        -2.3060   -5.3970   -0.8450 c3        1 MOL      0.437932
     84 C28        -3.1290   -6.6580   -1.0540 c3        1 MOL     -0.465520
     85 O15        -2.2770   -4.6190   -2.0240 oh        1 MOL     -0.575570
     86 H35        -4.1950   -3.1870   -0.2090 hn        1 MOL      0.013312
     87 H36        -2.6860   -5.3850    1.1920 h1        1 MOL      0.105342
     88 H37        -1.2860   -5.7390   -0.6870 h1        1 MOL      0.009440
     89 H38        -3.0040   -4.0070   -1.8800 ho        1 MOL      0.348859
     90 H39        -3.2980   -7.1480   -0.0900 hc        1 MOL      0.122634
     91 H40        -4.1230   -6.4080   -1.4210 hc        1 MOL      0.122634
     92 H41        -2.6150   -7.3730   -1.6960 hc        1 MOL      0.122634
     93 N9         -0.5440   -4.0790    1.3530 n         1 MOL     -0.721196
     94 C29         0.6840   -3.3790    1.6360 c3        1 MOL      0.240237
     95 C30         1.7470   -3.7610    0.6550 c         1 MOL      0.431788
     96 O16         2.0120   -4.9160    0.4380 o         1 MOL     -0.566766
     97 C31         1.1310   -3.5470    3.0840 c3        1 MOL     -0.003579
     98 C32         0.4140   -2.4800    4.0140 c3        1 MOL      0.085238
     99 C33         2.6650   -3.4730    3.3540 c3        1 MOL     -0.153504
    100 C34         0.5570   -2.8340    5.5110 c3        1 MOL     -0.296257
    101 H42        -0.6020   -5.0520    1.6310 hn        1 MOL      0.330743
    102 H43         0.4610   -2.3360    1.4130 h1        1 MOL      0.037279
    103 H44         0.8150   -4.5390    3.3990 hc        1 MOL      0.044184
    104 H45        -0.6410   -2.4230    3.7140 hc        1 MOL      0.014746
    105 H46         0.8140   -1.4910    3.8240 hc        1 MOL      0.014746
    106 H47         3.1540   -4.2890    2.8240 hc        1 MOL      0.027362
    107 H48         3.0780   -2.5670    2.9080 hc        1 MOL      0.027362
    108 H49         2.9490   -3.5340    4.4040 hc        1 MOL      0.027362
    109 H50        -0.2480   -2.3600    6.0720 hc        1 MOL      0.072750
    110 H51         0.2880   -3.8970    5.5400 hc        1 MOL      0.072750
    111 H52         1.5840   -2.6310    5.8240 hc        1 MOL      0.072750
    112 N10         2.4890   -2.8630   -0.0090 n         1 MOL     -0.033415
    113 C35         3.5800   -3.0540   -1.0620 c3        1 MOL     -0.043801
    114 C36         4.9130   -2.7860   -0.3440 c         1 MOL      0.315657
    115 O17         4.9280   -2.3740    0.8120 o         1 MOL     -0.290460
    116 C37         3.4300   -1.9630   -2.1950 c3        1 MOL      0.341089
    117 C38         2.2570   -2.3610   -3.0560 c3        1 MOL     -0.320718
    118 O18         3.2360   -0.6300   -1.6880 oh        1 MOL     -0.634828
    119 H53         2.1950   -1.9210    0.1910 hn        1 MOL     -0.037633
    120 H54         3.6610   -4.0600   -1.4660 h1        1 MOL      0.097841
    121 H55         4.3020   -2.0090   -2.8480 h1        1 MOL     -0.000446
    122 H56         2.3100   -0.4880   -1.5000 ho        1 MOL      0.412222
    123 H57         2.4820   -3.3510   -3.4600 hc        1 MOL      0.074583
    124 H58         1.3630   -2.3720   -2.4290 hc        1 MOL      0.074583
    125 H59         2.0960   -1.5470   -3.7520 hc        1 MOL      0.074583
    126 N11         6.0600   -2.9680   -1.0160 n         1 MOL     -0.354329
    127 C39         7.4270   -2.5330   -0.5540 c3        1 MOL      0.032047
    128 C40         7.3980   -1.1650    0.1230 c         1 MOL      0.164581
    129 O19         7.9830   -0.9520    1.1800 o         1 MOL     -0.444206
    130 C41         8.4930   -2.4850   -1.7140 c3        1 MOL      0.214491
    131 C42         8.8300   -3.8880   -2.2100 c3        1 MOL     -0.401181
    132 O20         7.9080   -1.8490   -2.8280 oh        1 MOL     -0.638758
    133 H60         6.0320   -3.5510   -1.8320 hn        1 MOL      0.290932
    134 H61         7.8850   -3.2020    0.1740 h1        1 MOL      0.097846
    135 H62         9.3670   -1.9160   -1.3970 h1        1 MOL      0.072157
    136 H63         8.6430   -1.7570   -3.4460 ho        1 MOL      0.404255
    137 H64         7.9600   -4.5440   -2.2550 hc        1 MOL      0.118046
    138 H65         9.3960   -3.8430   -3.1380 hc        1 MOL      0.118046
    139 H66         9.6470   -4.3120   -1.6220 hc        1 MOL      0.118046
    140 N12         6.9130   -0.1290   -0.5960 n         1 MOL     -0.017593
    141 C43         6.9950    1.2510   -0.2110 c3        1 MOL      0.096292
    142 C44         6.0630    1.5510    0.9740 c         1 MOL      0.300185
    143 O21         6.4760    2.2590    1.8790 o         1 MOL     -0.497226
    144 C45         6.6270    2.0430   -1.4390 c3        1 MOL     -0.398828
    145 C46         7.8500    2.2060   -2.3490 c3        1 MOL      0.152724
    146 C47         7.3160    2.8110   -3.7190 c3        1 MOL     -0.015325
    147 C48         8.3410    3.1170   -4.8340 c3        1 MOL     -0.012664
    148 N13         9.4000    4.0880   -4.4000 n4        1 MOL     -0.313958
    149 H67         6.4720   -0.3790   -1.4660 hn        1 MOL      0.221035
    150 H68         7.9950    1.4760    0.1680 h1        1 MOL      0.063798
    151 H69         6.3170    3.0390   -1.1230 hc        1 MOL      0.109317
    152 H70         5.8050    1.4940   -1.9080 hc        1 MOL      0.109317
    153 H71         8.2550    1.2020   -2.4570 hc        1 MOL     -0.026446
    154 H72         8.6990    2.8160   -2.0380 hc        1 MOL     -0.026446
    155 H73         6.9300    3.8000   -3.4630 hc        1 MOL      0.047295
    156 H74         6.4710    2.2870   -4.1520 hc        1 MOL      0.047295
    157 H75         7.7920    3.5590   -5.6660 hx        1 MOL      0.087906
    158 H76         8.7260    2.1540   -5.1690 hx        1 MOL      0.087906
    159 H77         9.8990    4.3700   -5.2330 hn        1 MOL      0.291613
    160 H78         8.9830    4.9580   -4.0980 hn        1 MOL      0.291613
    161 H79        10.0610    3.7530   -3.7020 hn        1 MOL      0.291613
    162 N14         4.9510    0.8450    1.0190 n         1 MOL     -0.006307
    163 C49         3.9490    1.0770    2.0730 c3        1 MOL     -0.056722
    164 C50         4.3260    0.2820    3.3720 c         1 MOL      0.290875
    165 O22         4.2320    0.9110    4.4560 o         1 MOL     -0.528983
    166 C51         2.5950    0.6090    1.5700 c3        1 MOL      0.243823
    167 C52         1.9330    1.4920    0.5170 c3        1 MOL     -0.208153
    168 C53         0.7090    0.7730   -0.0380 c         1 MOL      0.660688
    169 O23         0.8610   -0.3550   -0.6850 o         1 MOL     -0.648291
    170 O24        -0.4470    1.3080    0.1040 o         1 MOL     -0.648291
    171 H80         4.7390    0.1730    0.3050 hn        1 MOL      0.043719
    172 H81         3.9720    2.1440    2.2910 h1        1 MOL      0.093912
    173 H82         1.8870    0.5630    2.3880 hc        1 MOL     -0.016489
    174 H83         2.7730   -0.4340    1.2930 hc        1 MOL     -0.016489
    175 H84         2.6530    1.7290   -0.2740 hc        1 MOL      0.018688
    176 H85         1.7920    2.4050    1.1000 hc        1 MOL      0.018688
    177 N15         4.9810   -0.8530    3.2300 n         1 MOL      0.130264
    178 C54         5.8060   -1.4320    4.2470 c3        1 MOL     -0.315957
    179 H86         5.6600   -0.8920    5.1830 h1        1 MOL      0.108625
    180 H87         5.5330   -2.4780    4.3850 h1        1 MOL      0.108625
    181 H88         6.8510   -1.3640    3.9490 h1        1 MOL      0.108625
    182 H89         4.8930   -1.2700    2.3130 hn        1 MOL      0.039269
    183 Ca1        -1.8810   -0.3330   -1.3610 Ca        1 MOL      1.713149
    184 O25        -0.5000    0.6670   -3.3340 oh        1 MOL     -0.833733
    185 H90        -0.9830    1.4250   -3.6860 ho        1 MOL      0.392295
    186 H91        -0.2550    0.1630   -4.1090 ho        1 MOL      0.392295
    187 O26        -1.0010   -2.3620   -2.6400 oh        1 MOL     -0.833733
    188 H92        -1.1760   -3.2390   -2.3060 ho        1 MOL      0.392295
    189 H93        -0.6690   -2.5050   -3.5300 ho        1 MOL      0.392295
@<TRIPOS>BOND
     1    1    2 1   
     2    1    4 1   
     3    1    5 1   
     4    1    6 1   
     5    2    3 2   
     6    2    7 1   
     7    7    8 1   
     8    7   15 1   
     9    8    9 1   
    10    8   11 1   
    11    8   16 1   
    12    9   10 2   
    13    9   19 1   
    14   11   12 1   
    15   11   17 1   
    16   11   18 1   
    17   12   13 1   
    18   12   14 1   
    19   19   20 1   
    20   19   28 1   
    21   20   21 1   
    22   20   23 1   
    23   20   29 1   
    24   21   22 2   
    25   21   41 1   
    26   23   24 1   
    27   23   30 1   
    28   23   31 1   
    29   24   25 1   
    30   24   32 1   
    31   24   33 1   
    32   25   26 1   
    33   25   34 1   
    34   25   35 1   
    35   26   27 1   
    36   26   36 1   
    37   26   37 1   
    38   27   38 1   
    39   27   39 1   
    40   27   40 1   
    41   41   42 1   
    42   41   49 1   
    43   42   43 1   
    44   42   45 1   
    45   42   50 1   
    46   43   44 2   
    47   43   53 1   
    48   45   46 1   
    49   45   51 1   
    50   45   52 1   
    51   46   47 1   
    52   46   48 1   
    53   53   54 1   
    54   53   57 1   
    55   54   55 1   
    56   54   58 1   
    57   54   59 1   
    58   55   56 2   
    59   55   60 1   
    60   60   61 1   
    61   60   68 1   
    62   61   62 1   
    63   61   64 1   
    64   61   69 1   
    65   62   63 2   
    66   62   72 1   
    67   64   65 1   
    68   64   70 1   
    69   64   71 1   
    70   65   66 1   
    71   65   67 1   
    72   72   73 1   
    73   72   76 1   
    74   73   74 1   
    75   73   77 1   
    76   73   78 1   
    77   74   75 2   
    78   74   79 1   
    79   79   80 1   
    80   79   86 1   
    81   80   81 1   
    82   80   83 1   
    83   80   87 1   
    84   81   82 2   
    85   81   93 1   
    86   83   84 1   
    87   83   85 1   
    88   83   88 1   
    89   84   90 1   
    90   84   91 1   
    91   84   92 1   
    92   85   89 1   
    93   93   94 1   
    94   93  101 1   
    95   94   95 1   
    96   94   97 1   
    97   94  102 1   
    98   95   96 2   
    99   95  112 1   
   100   97   98 1   
   101   97   99 1   
   102   97  103 1   
   103   98  100 1   
   104   98  104 1   
   105   98  105 1   
   106   99  106 1   
   107   99  107 1   
   108   99  108 1   
   109  100  109 1   
   110  100  110 1   
   111  100  111 1   
   112  112  113 1   
   113  112  119 1   
   114  113  114 1   
   115  113  116 1   
   116  113  120 1   
   117  114  115 2   
   118  114  126 1   
   119  116  117 1   
   120  116  118 1   
   121  116  121 1   
   122  117  123 1   
   123  117  124 1   
   124  117  125 1   
   125  118  122 1   
   126  126  127 1   
   127  126  133 1   
   128  127  128 1   
   129  127  130 1   
   130  127  134 1   
   131  128  129 2   
   132  128  140 1   
   133  130  131 1   
   134  130  132 1   
   135  130  135 1   
   136  131  137 1   
   137  131  138 1   
   138  131  139 1   
   139  132  136 1   
   140  140  141 1   
   141  140  149 1   
   142  141  142 1   
   143  141  144 1   
   144  141  150 1   
   145  142  143 2   
   146  142  162 1   
   147  144  145 1   
   148  144  151 1   
   149  144  152 1   
   150  145  146 1   
   151  145  153 1   
   152  145  154 1   
   153  146  147 1   
   154  146  155 1   
   155  146  156 1   
   156  147  148 1   
   157  147  157 1   
   158  147  158 1   
   159  148  159 1   
   160  148  160 1   
   161  148  161 1   
   162  162  163 1   
   163  162  171 1   
   164  163  164 1   
   165  163  166 1   
   166  163  172 1   
   167  164  165 2   
   168  164  177 1   
   169  166  167 1   
   170  166  173 1   
   171  166  174 1   
   172  167  168 1   
   173  167  175 1   
   174  167  176 1   
   175  168  169 1   
   176  168  170 1   
   177  177  178 1   
   178  177  182 1   
   179  178  179 1   
   180  178  180 1   
   181  178  181 1   
   182  184  185 1   
   183  184  186 1   
   184  187  188 1   
   185  187  189 1   
@<TRIPOS>SUBSTRUCTURE
     1 MOL         1 TEMP              0 ****  ****    0 ROOT
