@<TRIPOS>MOLECULE
MOL
  172   171     1     0     0
SMALL
resp


@<TRIPOS>ATOM
      1 C1         -0.0650    3.3270    5.7850 c3        1 MOL     -0.324636
      2 C2         -0.4160    3.1070    4.2890 c         1 MOL      0.670146
      3 O1          0.3940    3.4620    3.4170 o         1 MOL     -0.539965
      4 H1          1.0020    3.5240    5.8820 hc        1 MOL      0.081187
      5 H2         -0.6280    4.1780    6.1690 hc        1 MOL      0.081187
      6 H3         -0.3230    2.4330    6.3550 hc        1 MOL      0.081187
      7 N1         -1.6870    2.7410    3.9520 n         1 MOL     -0.569439
      8 C3         -2.0900    2.4980    2.6020 c3        1 MOL      0.025808
      9 C4         -2.7480    3.7660    1.9640 c         1 MOL      0.596205
     10 O2         -3.7130    4.3200    2.4430 o         1 MOL     -0.593389
     11 C5         -3.1230    1.3480    2.6220 c3        1 MOL     -0.008066
     12 C6         -3.5450    0.7200    1.2400 c         1 MOL      0.468291
     13 O3         -4.2310   -0.3090    1.2290 o         1 MOL     -0.618672
     14 O4         -3.2480    1.3450    0.1420 o         1 MOL     -0.618672
     15 H4         -2.3620    2.5350    4.6650 hn        1 MOL      0.301602
     16 H5         -1.1700    2.3030    2.0490 h1        1 MOL      0.090360
     17 H6         -4.0620    1.6720    3.0680 hc        1 MOL      0.019043
     18 H7         -2.7750    0.5640    3.3000 hc        1 MOL      0.019043
     19 N2         -2.1150    4.1070    0.8540 n         1 MOL     -0.399164
     20 C7         -2.3590    5.3580    0.1250 c3        1 MOL      0.155904
     21 C8         -3.3490    5.2800   -1.0350 c         1 MOL      0.400534
     22 O5         -4.0380    6.2570   -1.3550 o         1 MOL     -0.569196
     23 C9         -0.9580    5.9580   -0.3450 c3        1 MOL     -0.270875
     24 H8         -1.3700    3.4740    0.6170 hn        1 MOL      0.257321
     25 H9         -2.8060    6.0100    0.8810 h1        1 MOL      0.052799
     26 H10        -0.6960    5.4010   -1.2460 hc        1 MOL      0.071009
     27 H11        -1.0550    7.0350   -0.4890 hc        1 MOL      0.071009
     28 H12        -0.1780    5.8150    0.4010 hc        1 MOL      0.071009
     29 N3         -3.5490    4.0400   -1.4550 n         1 MOL     -0.227185
     30 C10        -4.6610    3.7520   -2.4090 c3        1 MOL      0.100845
     31 C11        -5.8570    3.1630   -1.6420 c         1 MOL      0.395388
     32 O6         -6.9870    3.1400   -2.1180 o         1 MOL     -0.584120
     33 C12        -4.2130    2.9490   -3.6440 c3        1 MOL     -0.224688
     34 C13        -3.3650    1.7350   -3.2370 c         1 MOL      0.768050
     35 O7         -2.1130    1.7630   -3.3510 o         1 MOL     -0.754549
     36 O8         -4.0270    0.7750   -2.8670 o         1 MOL     -0.754549
     37 H13        -2.9680    3.2980   -1.0970 hn        1 MOL      0.212636
     38 H14        -5.1860    4.6010   -2.8460 h1        1 MOL      0.075683
     39 H15        -3.6780    3.7170   -4.2030 hc        1 MOL      0.050829
     40 H16        -5.0400    2.6110   -4.2560 hc        1 MOL      0.050829
     41 N4         -5.7420    2.7070   -0.4180 n         1 MOL     -0.080532
     42 C14        -6.8120    2.2370    0.4920 c3        1 MOL     -0.383168
     43 C15        -7.3500    0.8800    0.0180 c         1 MOL      0.682392
     44 O9         -8.4390    0.5130    0.3800 o         1 MOL     -0.643803
     45 H17        -4.7830    2.5450   -0.1310 hn        1 MOL      0.099889
     46 H18        -7.5490    3.0320    0.3980 h1        1 MOL      0.163292
     47 H19        -6.4050    2.0820    1.4880 h1        1 MOL      0.163292
     48 N5         -6.6500    0.0990   -0.7890 n         1 MOL     -0.248132
     49 C16        -7.1050   -1.3030   -1.2400 c3        1 MOL     -0.096871
     50 C17        -6.9730   -2.4550   -0.2100 c         1 MOL      0.509818
     51 O10        -7.0150   -3.6280   -0.5640 o         1 MOL     -0.533077
     52 C18        -6.4660   -1.7660   -2.5330 c3        1 MOL     -0.196538
     53 C19        -5.0470   -2.1160   -2.5030 c         1 MOL      0.628546
     54 N6         -4.4450   -2.5410   -3.5970 n         1 MOL     -0.732086
     55 O11        -4.3240   -2.0010   -1.5190 o         1 MOL     -0.508247
     56 H20        -5.7780    0.4730   -1.1430 hn        1 MOL      0.225082
     57 H21        -8.1730   -1.2180   -1.4450 h1        1 MOL      0.123425
     58 H22        -6.7470   -1.0070   -3.2650 hc        1 MOL      0.085357
     59 H23        -6.8890   -2.6810   -2.9270 hc        1 MOL      0.085357
     60 H24        -4.8920   -2.3830   -4.4890 hn        1 MOL      0.338368
     61 H25        -3.4370   -2.4930   -3.5720 hn        1 MOL      0.338368
     62 N7         -6.7540   -2.1730    1.0700 n         1 MOL     -0.415635
     63 C20        -6.4430   -3.2070    2.0670 c3        1 MOL     -0.039864
     64 C21        -5.1340   -3.9260    2.0530 c         1 MOL      0.425785
     65 O12        -4.9040   -4.7750    2.9970 o         1 MOL     -0.571395
     66 H26        -6.5650   -1.2160    1.3130 hn        1 MOL      0.321135
     67 H27        -7.1920   -4.0040    2.0040 h1        1 MOL      0.088206
     68 H28        -6.6260   -2.7710    3.0450 h1        1 MOL      0.088206
     69 N8         -4.1680   -3.5820    1.1110 n         1 MOL     -0.048685
     70 C22        -2.8300   -4.1780    1.0270 c3        1 MOL     -0.221109
     71 C23        -1.6440   -3.2140    0.9160 c         1 MOL      0.642144
     72 O13        -1.7680   -2.1850    0.2200 o         1 MOL     -0.549524
     73 C24        -2.7160   -5.2080   -0.0550 c3        1 MOL      0.440517
     74 C25        -3.6820   -6.4150    0.0610 c3        1 MOL     -0.305198
     75 O14        -2.8150   -4.5530   -1.3000 oh        1 MOL     -0.666992
     76 H29        -4.3090   -2.7340    0.5780 hn        1 MOL      0.091055
     77 H30        -2.6250   -4.7290    1.9500 h1        1 MOL      0.051371
     78 H31        -1.7010   -5.6070    0.0030 h1        1 MOL      0.006019
     79 H32        -3.6490   -4.1000   -1.4580 ho        1 MOL      0.399946
     80 H33        -3.4230   -7.2890   -0.5400 hc        1 MOL      0.071964
     81 H34        -3.6210   -6.8340    1.0640 hc        1 MOL      0.071964
     82 H35        -4.7220   -6.1730   -0.1540 hc        1 MOL      0.071964
     83 N9         -0.5310   -3.5990    1.4860 n         1 MOL     -0.399570
     84 C26         0.6640   -2.7480    1.5520 c3        1 MOL      0.006650
     85 C27         1.6210   -3.0640    0.4320 c         1 MOL      0.481158
     86 O15         1.9910   -4.2020    0.1670 o         1 MOL     -0.567104
     87 C28         1.2540   -2.8920    2.9340 c3        1 MOL      0.145301
     88 C29         0.2250   -2.4640    4.0030 c3        1 MOL      0.150799
     89 C30         2.5600   -2.1590    3.0350 c3        1 MOL     -0.051494
     90 C31         0.4970   -3.1230    5.3750 c3        1 MOL     -0.250793
     91 H36        -0.5250   -4.4640    2.0140 hn        1 MOL      0.254879
     92 H37         0.3570   -1.7030    1.4580 h1        1 MOL      0.059194
     93 H38         1.5090   -3.9480    3.0370 hc        1 MOL     -0.033294
     94 H39        -0.7780   -2.6260    3.6180 hc        1 MOL     -0.030868
     95 H40         0.2950   -1.3760    4.0480 hc        1 MOL     -0.030868
     96 H41         3.2910   -2.5640    2.3230 hc        1 MOL      0.005074
     97 H42         2.4770   -1.1000    2.8110 hc        1 MOL      0.005074
     98 H43         2.9950   -2.3100    4.0210 hc        1 MOL      0.005074
     99 H44        -0.1720   -2.6770    6.1100 hc        1 MOL      0.047608
    100 H45         0.3390   -4.2010    5.4200 hc        1 MOL      0.047608
    101 H46         1.4960   -2.8520    5.7090 hc        1 MOL      0.047608
    102 N10         2.0530   -2.0260   -0.3370 n         1 MOL     -0.170769
    103 C32         3.0440   -2.0990   -1.3850 c3        1 MOL      0.116966
    104 C33         4.4120   -1.5780   -0.8790 c         1 MOL      0.389337
    105 O16         4.5480   -0.9860    0.2500 o         1 MOL     -0.327265
    106 C34         2.6140   -1.2120   -2.6190 c3        1 MOL     -0.336293
    107 C35         1.1910   -1.5360   -3.0460 c         1 MOL      0.875486
    108 O17         0.3660   -0.6030   -2.9670 o         1 MOL     -0.722249
    109 O18         0.9600   -2.5860   -3.5970 o         1 MOL     -0.722249
    110 H47         1.6550   -1.1200   -0.1300 hn        1 MOL     -0.068254
    111 H48         3.1020   -3.1450   -1.6990 h1        1 MOL      0.066009
    112 H49         3.2600   -1.1640   -3.5020 hc        1 MOL      0.091044
    113 H50         2.6760   -0.2110   -2.1970 hc        1 MOL      0.091044
    114 N11         5.4480   -1.6380   -1.7410 n         1 MOL     -0.662751
    115 C36         6.7980   -1.2330   -1.3710 c3        1 MOL      0.512098
    116 C37         7.0370    0.2290   -0.8750 c         1 MOL      0.188120
    117 O19         7.5150    0.4150    0.2620 o         1 MOL     -0.446553
    118 C38         7.9170   -1.7990   -2.2780 c3        1 MOL     -0.148466
    119 C39         9.2740   -1.7330   -1.5890 ca        1 MOL     -0.005708
    120 C40         9.5170   -2.3440   -0.3720 ca        1 MOL     -0.058653
    121 C41        10.2800   -0.9240   -2.1310 ca        1 MOL     -0.058653
    122 C42        10.7700   -2.0670    0.2940 ca        1 MOL     -0.221805
    123 C43        11.5420   -0.7970   -1.5520 ca        1 MOL     -0.221805
    124 C44        11.7980   -1.2850   -0.2790 ca        1 MOL      0.007042
    125 H51         5.2810   -1.6880   -2.7380 hn        1 MOL      0.295342
    126 H52         6.8910   -1.8260   -0.4610 h1        1 MOL      0.059304
    127 H53         7.9300   -1.3200   -3.2540 hc        1 MOL      0.038396
    128 H54         7.6760   -2.8530   -2.4200 hc        1 MOL      0.038396
    129 H55         8.7670   -2.9570    0.0970 ha        1 MOL      0.089626
    130 H56        10.2320   -0.5810   -3.1620 ha        1 MOL      0.089626
    131 H57        10.9660   -2.5650    1.2280 ha        1 MOL      0.125229
    132 H58        12.2920   -0.1290   -1.9610 ha        1 MOL      0.125229
    133 H59        12.7670   -1.0850    0.1400 ha        1 MOL      0.083102
    134 N12         6.4720    1.2760   -1.5370 n         1 MOL     -0.012800
    135 C45         6.4880    2.6320   -1.0760 c3        1 MOL      0.095939
    136 C46         5.8030    2.8120    0.2700 c         1 MOL      0.215224
    137 O20         6.2360    3.6840    0.9980 o         1 MOL     -0.486301
    138 C47         5.7860    3.4660   -2.1400 c3        1 MOL     -0.017713
    139 C48         6.2410    2.7020   -3.3780 c3        1 MOL      0.002057
    140 C49         6.1460    1.2180   -2.9660 c3        1 MOL     -0.099788
    141 H60         7.5120    2.9770   -0.9750 h1        1 MOL      0.034127
    142 H61         4.7230    3.4030   -1.8980 hc        1 MOL      0.030826
    143 H62         6.1730    4.4820   -2.2130 hc        1 MOL      0.030826
    144 H63         5.5900    2.9910   -4.2070 hc        1 MOL      0.011816
    145 H64         7.2680    2.9740   -3.6450 hc        1 MOL      0.011816
    146 H65         5.1190    0.8830   -3.0810 h1        1 MOL      0.041056
    147 H66         6.8510    0.6320   -3.5420 h1        1 MOL      0.041056
    148 N13         4.7210    2.0930    0.5400 n         1 MOL      0.022877
    149 C50         3.8820    2.1790    1.7380 c3        1 MOL     -0.222569
    150 C51         4.6720    1.4840    2.8240 c         1 MOL      0.453894
    151 O21         4.8240    2.0400    3.9100 o         1 MOL     -0.578505
    152 C52         2.5340    1.5490    1.5240 c3        1 MOL      0.125132
    153 C53         1.6810    2.2680    0.4820 c3        1 MOL     -0.009198
    154 C54         0.4300    1.4020    0.0020 c         1 MOL      0.684974
    155 O22         0.4250    0.1580    0.0980 o         1 MOL     -0.712354
    156 O23        -0.5590    1.9200   -0.5520 o         1 MOL     -0.712354
    157 H67         4.3770    1.4120   -0.1280 hn        1 MOL      0.146943
    158 H68         3.6580    3.2120    2.0200 h1        1 MOL      0.125338
    159 H69         1.9990    1.5070    2.4810 hc        1 MOL      0.012802
    160 H70         2.7610    0.5340    1.1960 hc        1 MOL      0.012802
    161 H71         2.2980    2.5360   -0.3690 hc        1 MOL     -0.011064
    162 H72         1.3790    3.1860    1.0000 hc        1 MOL     -0.011064
    163 N14         5.3560    0.3750    2.6140 n         1 MOL      0.082141
    164 C55         6.1460   -0.3670    3.5960 c3        1 MOL     -0.240098
    165 H73         6.9700    0.2560    3.9430 h1        1 MOL      0.083071
    166 H74         5.5130   -0.6380    4.4420 h1        1 MOL      0.083071
    167 H75         6.5440   -1.2710    3.1350 h1        1 MOL      0.083071
    168 H76         5.2330   -0.0240    1.6980 hn        1 MOL     -0.080445
    169 Ca1        -1.7950   -0.1310   -1.4140 Ca        1 MOL      1.746051
    170 O24        -1.5830   -2.4780   -2.6300 oh        1 MOL     -0.950600
    171 H77        -0.6930   -2.6440   -2.9540 ho        1 MOL      0.441320
    172 H78        -1.8090   -3.2630   -2.1340 ho        1 MOL      0.441320
@<TRIPOS>BOND
     1    1    2 1   
     2    1    4 1   
     3    1    5 1   
     4    1    6 1   
     5    2    3 2   
     6    2    7 1   
     7    7    8 1   
     8    7   15 1   
     9    8    9 1   
    10    8   11 1   
    11    8   16 1   
    12    9   10 2   
    13    9   19 1   
    14   11   12 1   
    15   11   17 1   
    16   11   18 1   
    17   12   13 1   
    18   12   14 1   
    19   19   20 1   
    20   19   24 1   
    21   20   21 1   
    22   20   23 1   
    23   20   25 1   
    24   21   22 2   
    25   21   29 1   
    26   23   26 1   
    27   23   27 1   
    28   23   28 1   
    29   29   30 1   
    30   29   37 1   
    31   30   31 1   
    32   30   33 1   
    33   30   38 1   
    34   31   32 2   
    35   31   41 1   
    36   33   34 1   
    37   33   39 1   
    38   33   40 1   
    39   34   35 1   
    40   34   36 1   
    41   41   42 1   
    42   41   45 1   
    43   42   43 1   
    44   42   46 1   
    45   42   47 1   
    46   43   44 2   
    47   43   48 1   
    48   48   49 1   
    49   48   56 1   
    50   49   50 1   
    51   49   52 1   
    52   49   57 1   
    53   50   51 2   
    54   50   62 1   
    55   52   53 1   
    56   52   58 1   
    57   52   59 1   
    58   53   54 1   
    59   53   55 2   
    60   54   60 1   
    61   54   61 1   
    62   62   63 1   
    63   62   66 1   
    64   63   64 1   
    65   63   67 1   
    66   63   68 1   
    67   64   65 2   
    68   64   69 1   
    69   69   70 1   
    70   69   76 1   
    71   70   71 1   
    72   70   73 1   
    73   70   77 1   
    74   71   72 2   
    75   71   83 1   
    76   73   74 1   
    77   73   75 1   
    78   73   78 1   
    79   74   80 1   
    80   74   81 1   
    81   74   82 1   
    82   75   79 1   
    83   83   84 1   
    84   83   91 1   
    85   84   85 1   
    86   84   87 1   
    87   84   92 1   
    88   85   86 2   
    89   85  102 1   
    90   87   88 1   
    91   87   89 1   
    92   87   93 1   
    93   88   90 1   
    94   88   94 1   
    95   88   95 1   
    96   89   96 1   
    97   89   97 1   
    98   89   98 1   
    99   90   99 1   
   100   90  100 1   
   101   90  101 1   
   102  102  103 1   
   103  102  110 1   
   104  103  104 1   
   105  103  106 1   
   106  103  111 1   
   107  104  105 2   
   108  104  114 1   
   109  106  107 1   
   110  106  112 1   
   111  106  113 1   
   112  107  108 1   
   113  107  109 1   
   114  114  115 1   
   115  114  125 1   
   116  115  116 1   
   117  115  118 1   
   118  115  126 1   
   119  116  117 2   
   120  116  134 1   
   121  118  119 1   
   122  118  127 1   
   123  118  128 1   
   124  119  120 ar  
   125  119  121 ar  
   126  120  122 ar  
   127  120  129 1   
   128  121  123 ar  
   129  121  130 1   
   130  122  124 ar  
   131  122  131 1   
   132  123  124 ar  
   133  123  132 1   
   134  124  133 1   
   135  134  135 1   
   136  134  140 1   
   137  135  136 1   
   138  135  138 1   
   139  135  141 1   
   140  136  137 2   
   141  136  148 1   
   142  138  139 1   
   143  138  142 1   
   144  138  143 1   
   145  139  140 1   
   146  139  144 1   
   147  139  145 1   
   148  140  146 1   
   149  140  147 1   
   150  148  149 1   
   151  148  157 1   
   152  149  150 1   
   153  149  152 1   
   154  149  158 1   
   155  150  151 2   
   156  150  163 1   
   157  152  153 1   
   158  152  159 1   
   159  152  160 1   
   160  153  154 1   
   161  153  161 1   
   162  153  162 1   
   163  154  155 1   
   164  154  156 1   
   165  163  164 1   
   166  163  168 1   
   167  164  165 1   
   168  164  166 1   
   169  164  167 1   
   170  170  171 1   
   171  170  172 1   
@<TRIPOS>SUBSTRUCTURE
     1 MOL         1 TEMP              0 ****  ****    0 ROOT
