@<TRIPOS>MOLECULE
MOL
  179   176     1     0     0
SMALL
resp


@<TRIPOS>ATOM
      1 C1         -1.4540   -3.6140    5.6080 c3        1 MOL     -0.443055
      2 C2         -0.9900   -3.3750    4.2340 c         1 MOL      0.764797
      3 O1         -1.7100   -3.5780    3.2820 o         1 MOL     -0.640185
      4 H1         -1.6160   -4.6830    5.7560 hc        1 MOL      0.112401
      5 H2         -0.7010   -3.2610    6.3130 hc        1 MOL      0.112401
      6 H3         -2.3890   -3.0790    5.7750 hc        1 MOL      0.112401
      7 N1          0.2020   -2.8390    4.0650 n         1 MOL     -0.437509
      8 C3          0.8030   -2.5520    2.7410 c3        1 MOL     -0.038758
      9 C4          1.1260   -3.8660    1.9500 c         1 MOL      0.515227
     10 O2          1.9590   -4.7080    2.4110 o         1 MOL     -0.536509
     11 C5          2.0920   -1.6930    2.9250 c3        1 MOL     -0.493493
     12 C6          2.8750   -1.3430    1.6310 c         1 MOL      0.864456
     13 O3          2.6220   -1.7410    0.4490 o         1 MOL     -0.702303
     14 O4          3.8610   -0.5590    1.8260 o         1 MOL     -0.702303
     15 H4          0.8090   -2.7180    4.8640 hn        1 MOL      0.294853
     16 H5          0.0100   -2.0830    2.1570 h1        1 MOL      0.046297
     17 H6          2.7540   -2.2870    3.5530 hc        1 MOL      0.161122
     18 H7          1.8040   -0.7720    3.4230 hc        1 MOL      0.161122
     19 N2          0.4410   -4.0520    0.7730 n         1 MOL     -0.307330
     20 C7          0.4000   -5.3420   -0.0260 c3        1 MOL     -0.086866
     21 C8          1.7110   -5.6660   -0.6690 c         1 MOL      0.513720
     22 O5          1.8490   -6.8520   -0.9420 o         1 MOL     -0.574311
     23 C9         -0.6740   -5.4580   -1.0870 c3        1 MOL     -0.053566
     24 C10        -2.0790   -5.4980   -0.3840 c3        1 MOL     -0.011054
     25 C11        -3.1630   -5.4400   -1.4780 c3        1 MOL     -0.102328
     26 C12        -4.5200   -5.2620   -0.8700 c3        1 MOL      0.219170
     27 N3         -5.5350   -5.3660   -1.9350 n4        1 MOL     -0.544933
     28 H8         -0.1630   -3.3300    0.4140 hn        1 MOL      0.287185
     29 H9          0.2360   -6.1270    0.7140 h1        1 MOL      0.097515
     30 H10        -0.4930   -6.3730   -1.6480 hc        1 MOL      0.054896
     31 H11        -0.5910   -4.5730   -1.7280 hc        1 MOL      0.054896
     32 H12        -2.3220   -4.6070    0.1880 hc        1 MOL      0.055705
     33 H13        -2.1690   -6.4160    0.2000 hc        1 MOL      0.055705
     34 H14        -3.1550   -6.4020   -1.9850 hc        1 MOL      0.022612
     35 H15        -2.9030   -4.6890   -2.2330 hc        1 MOL      0.022612
     36 H16        -4.6670   -4.2950   -0.3790 hx        1 MOL      0.054604
     37 H17        -4.6670   -5.9710   -0.0680 hx        1 MOL      0.054604
     38 H18        -6.4560   -5.4900   -1.5620 hn        1 MOL      0.367091
     39 H19        -5.5140   -4.5340   -2.5150 hn        1 MOL      0.367091
     40 H20        -5.3510   -6.2030   -2.4630 hn        1 MOL      0.367091
     41 N4          2.5810   -4.7080   -0.8530 n         1 MOL     -0.126046
     42 C13         3.8180   -4.9210   -1.5670 c3        1 MOL     -0.140481
     43 C14         5.0110   -4.4450   -0.6920 c         1 MOL      0.530680
     44 O6          6.1220   -4.6580   -1.1800 o         1 MOL     -0.518721
     45 C15         3.8350   -4.4260   -3.0880 c3        1 MOL     -0.023721
     46 C16         3.5440   -2.9190   -3.3060 c         1 MOL      0.546397
     47 O7          2.9540   -2.2350   -2.4170 o         1 MOL     -0.670284
     48 O8          3.9440   -2.3570   -4.3730 o         1 MOL     -0.670284
     49 H21         2.2570   -3.7550   -0.7270 hn        1 MOL      0.037159
     50 H22         3.8720   -6.0080   -1.6070 h1        1 MOL      0.106849
     51 H23         3.1240   -5.0590   -3.6180 hc        1 MOL      0.046775
     52 H24         4.8530   -4.5690   -3.4340 hc        1 MOL      0.046775
     53 N5          4.8510   -3.8550    0.4950 n         1 MOL     -0.335883
     54 C17         5.9300   -3.3530    1.2990 c3        1 MOL      0.006833
     55 C18         6.6590   -2.2070    0.5980 c         1 MOL      0.466094
     56 O9          7.8490   -2.1250    0.6040 o         1 MOL     -0.560022
     57 H25         3.8860   -3.6060    0.6860 hn        1 MOL      0.221490
     58 H26         6.7240   -4.0940    1.3790 h1        1 MOL      0.060465
     59 H27         5.6650   -2.9870    2.2940 h1        1 MOL      0.060465
     60 N6          5.9230   -1.2600    0.0480 n         1 MOL     -0.082492
     61 C19         6.4680   -0.1310   -0.7200 c3        1 MOL     -0.185598
     62 C20         6.3840    1.1790    0.0640 c         1 MOL      0.354662
     63 O10         6.8480    2.1960   -0.4020 o         1 MOL     -0.442326
     64 C21         5.7910   -0.1420   -2.1280 c3        1 MOL     -0.304895
     65 C22         4.5960    0.8530   -2.3320 c         1 MOL      0.359834
     66 N7          4.6530    1.6770   -3.3270 n         1 MOL     -0.621522
     67 O11         3.8130    0.9790   -1.4250 o         1 MOL     -0.249346
     68 H28         4.9240   -1.4380    0.0490 hn        1 MOL      0.088104
     69 H29         7.5170   -0.4070   -0.8200 h1        1 MOL      0.169078
     70 H30         5.4960   -1.1720   -2.3260 hc        1 MOL      0.168841
     71 H31         6.5520    0.0890   -2.8680 hc        1 MOL      0.168841
     72 H32         5.5070    1.6100   -3.8690 hn        1 MOL      0.342816
     73 H33         3.9130    2.3300   -3.5370 hn        1 MOL      0.342816
     74 N8          5.8310    1.1350    1.3210 n         1 MOL     -0.159506
     75 C23         5.7390    2.2850    2.2650 c3        1 MOL     -0.287294
     76 C24         4.6860    3.3250    2.0120 c         1 MOL      0.576484
     77 O12         4.6640    4.4500    2.5350 o         1 MOL     -0.560066
     78 H34         5.4710    0.2330    1.5920 hn        1 MOL      0.221747
     79 H35         6.6340    2.8980    2.3310 h1        1 MOL      0.125717
     80 H36         5.5720    1.8630    3.2570 h1        1 MOL      0.125717
     81 N9          3.7540    2.9340    1.1580 n         1 MOL     -0.199317
     82 C25         2.5060    3.6100    0.9240 c3        1 MOL      0.048919
     83 C26         1.2530    2.7130    0.9210 c         1 MOL      0.637390
     84 O13         1.3900    1.5180    0.5620 o         1 MOL     -0.760244
     85 C27         2.4340    4.5470   -0.2800 c3        1 MOL      0.141520
     86 C28         3.5920    5.5220   -0.3700 ca        1 MOL     -0.288106
     87 C29         4.7960    5.1050   -1.0030 ca        1 MOL      0.096684
     88 C30         3.4780    6.8280    0.1500 ca        1 MOL      0.096684
     89 C31         5.8300    6.0310   -1.0700 ca        1 MOL     -0.482846
     90 C32         4.5020    7.7340    0.0900 ca        1 MOL     -0.482846
     91 C33         5.7480    7.3170   -0.4620 ca        1 MOL      0.576855
     92 O14         6.7930    8.1510   -0.5410 oh        1 MOL     -0.500048
     93 H37         3.8540    1.9920    0.8050 hn        1 MOL      0.176005
     94 H38         2.1270    4.2520    1.7210 h1        1 MOL     -0.000922
     95 H39         1.5090    5.1190   -0.2230 hc        1 MOL     -0.027288
     96 H40         2.4990    3.8850   -1.1460 hc        1 MOL     -0.027288
     97 H41         4.9310    4.1040   -1.3870 ha        1 MOL      0.075693
     98 H42         2.5260    7.1410    0.5450 ha        1 MOL      0.075693
     99 H43         6.7440    5.6730   -1.5230 ha        1 MOL      0.182979
    100 H44         4.4750    8.6860    0.6030 ha        1 MOL      0.182979
    101 H45         6.4930    8.9770   -0.1330 ho        1 MOL      0.342157
    102 N10         0.0860    3.2240    1.3480 n         1 MOL     -0.577790
    103 C34        -1.2040    2.5670    1.3430 c3        1 MOL      0.065693
    104 C35        -2.1760    3.4520    0.5960 c         1 MOL      0.490514
    105 O15        -2.3630    4.6430    0.8240 o         1 MOL     -0.566487
    106 C36        -1.6230    2.2690    2.7990 c3        1 MOL     -0.048041
    107 C37        -0.7990    1.1040    3.3460 c3        1 MOL      0.242911
    108 C38        -3.1390    2.1570    2.9940 c3        1 MOL     -0.059087
    109 C39        -0.8860    1.0430    4.8590 c3        1 MOL     -0.170351
    110 H46         0.0770    4.1940    1.6200 hn        1 MOL      0.343783
    111 H47        -1.1820    1.6200    0.8230 h1        1 MOL      0.167163
    112 H48        -1.3820    3.1050    3.4450 hc        1 MOL      0.050419
    113 H49         0.2770    1.2280    3.2090 hc        1 MOL     -0.017974
    114 H50        -1.1270    0.1520    2.9250 hc        1 MOL     -0.017974
    115 H51        -3.6400    3.1070    2.7910 hc        1 MOL      0.012376
    116 H52        -3.5030    1.3830    2.3180 hc        1 MOL      0.012376
    117 H53        -3.4390    1.9260    4.0160 hc        1 MOL      0.012376
    118 H54        -0.6780    2.0550    5.2070 hc        1 MOL      0.020521
    119 H55        -1.8910    0.7260    5.1250 hc        1 MOL      0.020521
    120 H56        -0.2520    0.2380    5.2150 hc        1 MOL      0.020521
    121 N11        -2.9630    2.8440   -0.2440 n         1 MOL     -0.210238
    122 C40        -4.0690    3.4050   -1.0260 c3        1 MOL      0.018677
    123 C41        -5.4260    3.1970   -0.3230 c         1 MOL      0.552878
    124 O16        -5.6320    2.3500    0.5640 o         1 MOL     -0.479490
    125 C42        -4.1080    2.7750   -2.4870 c3        1 MOL     -0.280383
    126 O17        -4.4290    1.4320   -2.3800 oh        1 MOL     -0.308945
    127 H57        -2.8670    1.8440   -0.3760 hn        1 MOL      0.218599
    128 H58        -3.9860    4.4790   -1.1760 h1        1 MOL      0.090081
    129 H59        -3.0680    2.8020   -2.8070 h1        1 MOL      0.130216
    130 H60        -4.8050    3.3200   -3.1230 h1        1 MOL      0.130216
    131 H61        -4.1510    1.0220   -3.2100 ho        1 MOL      0.385734
    132 N12        -6.4490    3.9710   -0.7730 n         1 MOL     -0.444157
    133 C43        -7.7970    3.8460   -0.3980 c3        1 MOL      0.110987
    134 C44        -8.4520    2.5050   -0.9200 c         1 MOL      0.392093
    135 O18        -9.5280    2.1110   -0.4440 o         1 MOL     -0.503110
    136 C45        -8.5690    5.1230   -0.8020 c3        1 MOL     -0.257963
    137 H62        -6.3580    4.6460   -1.5210 hn        1 MOL      0.274243
    138 H63        -7.9170    3.8150    0.6870 h1        1 MOL      0.101789
    139 H64        -9.5540    5.2180   -0.3470 hc        1 MOL      0.088097
    140 H65        -7.9840    5.9600   -0.4270 hc        1 MOL      0.088097
    141 H66        -8.7480    5.2400   -1.8720 hc        1 MOL      0.088097
    142 N13        -7.7280    1.8030   -1.7730 n         1 MOL     -0.274868
    143 C46        -8.0820    0.4380   -2.2070 c3        1 MOL      0.233750
    144 C47        -7.3130   -0.6160   -1.3830 c         1 MOL      0.343202
    145 O19        -7.8750   -1.6720   -1.1060 o         1 MOL     -0.540655
    146 C48        -7.6870    0.2400   -3.6870 c3        1 MOL     -0.300970
    147 H67        -6.9640    2.1350   -2.3450 hn        1 MOL      0.219360
    148 H68        -9.1340    0.1840   -2.0720 h1        1 MOL      0.075355
    149 H69        -8.3510    0.9140   -4.2260 hc        1 MOL      0.075188
    150 H70        -6.6370    0.4570   -3.8700 hc        1 MOL      0.075188
    151 H71        -7.7820   -0.8100   -3.9570 hc        1 MOL      0.075188
    152 N14        -6.0980   -0.3810   -0.8970 n         1 MOL      0.044685
    153 C49        -5.4770   -1.2220    0.1390 c3        1 MOL     -0.382258
    154 C50        -6.0900   -1.1600    1.5540 c         1 MOL      0.538344
    155 O20        -6.2540   -2.2280    2.1450 o         1 MOL     -0.545878
    156 C51        -3.9020   -0.9680    0.2210 c3        1 MOL     -0.001283
    157 C52        -3.1040   -1.3320   -0.9760 c3        1 MOL      0.163366
    158 C53        -1.5960   -0.9480   -0.8380 c         1 MOL      0.433051
    159 O21        -1.2480    0.1880   -1.2500 o         1 MOL     -0.651465
    160 O22        -0.7060   -1.6540   -0.3560 o         1 MOL     -0.651465
    161 H72        -5.7100    0.5460   -0.9960 hn        1 MOL     -0.187821
    162 H73        -5.6860   -2.2340   -0.1950 h1        1 MOL      0.168514
    163 H74        -3.5690   -1.6300    1.0160 hc        1 MOL      0.060526
    164 H75        -3.7910    0.0810    0.5200 hc        1 MOL      0.060526
    165 H76        -3.5860   -0.8440   -1.8250 hc        1 MOL     -0.066245
    166 H77        -3.1980   -2.4140   -1.1460 hc        1 MOL     -0.066245
    167 N15        -6.7850   -0.0770    2.0090 n         1 MOL     -0.130881
    168 C54        -7.4150   -0.0650    3.3100 c3        1 MOL     -0.301962
    169 H78        -7.5850   -1.0900    3.6410 h1        1 MOL      0.121780
    170 H79        -6.7660    0.4440    4.0230 h1        1 MOL      0.121780
    171 H80        -8.3680    0.4590    3.2480 h1        1 MOL      0.121780
    172 H81        -6.7880    0.7620    1.4350 hn        1 MOL      0.224489
    173 Ca1         1.4870   -0.3030   -1.3210 Ca        1 MOL      1.719126
    174 O23         0.8320    2.0840   -2.3270 oh        1 MOL     -0.907809
    175 H82         1.5830    2.5190   -2.7470 ho        1 MOL      0.422387
    176 H83         0.0740    2.4350   -2.7790 ho        1 MOL      0.422387
    177 O24         2.0870   -0.1500   -4.0090 oh        1 MOL     -0.907809
    178 H84         2.6300   -0.9260   -4.0990 ho        1 MOL      0.422387
    179 H85         1.5360   -0.1460   -4.7940 ho        1 MOL      0.422387
@<TRIPOS>BOND
     1    1    2 1   
     2    1    4 1   
     3    1    5 1   
     4    1    6 1   
     5    2    3 2   
     6    2    7 1   
     7    7    8 1   
     8    7   15 1   
     9    8    9 1   
    10    8   11 1   
    11    8   16 1   
    12    9   10 2   
    13    9   19 1   
    14   11   12 1   
    15   11   17 1   
    16   11   18 1   
    17   12   13 1   
    18   12   14 1   
    19   19   20 1   
    20   19   28 1   
    21   20   21 1   
    22   20   23 1   
    23   20   29 1   
    24   21   22 2   
    25   21   41 1   
    26   23   24 1   
    27   23   30 1   
    28   23   31 1   
    29   24   25 1   
    30   24   32 1   
    31   24   33 1   
    32   25   26 1   
    33   25   34 1   
    34   25   35 1   
    35   26   27 1   
    36   26   36 1   
    37   26   37 1   
    38   27   38 1   
    39   27   39 1   
    40   27   40 1   
    41   41   42 1   
    42   41   49 1   
    43   42   43 1   
    44   42   45 1   
    45   42   50 1   
    46   43   44 2   
    47   43   53 1   
    48   45   46 1   
    49   45   51 1   
    50   45   52 1   
    51   46   47 1   
    52   46   48 1   
    53   53   54 1   
    54   53   57 1   
    55   54   55 1   
    56   54   58 1   
    57   54   59 1   
    58   55   56 2   
    59   55   60 1   
    60   60   61 1   
    61   60   68 1   
    62   61   62 1   
    63   61   64 1   
    64   61   69 1   
    65   62   63 2   
    66   62   74 1   
    67   64   65 1   
    68   64   70 1   
    69   64   71 1   
    70   65   66 1   
    71   65   67 2   
    72   66   72 1   
    73   66   73 1   
    74   74   75 1   
    75   74   78 1   
    76   75   76 1   
    77   75   79 1   
    78   75   80 1   
    79   76   77 2   
    80   76   81 1   
    81   81   82 1   
    82   81   93 1   
    83   82   83 1   
    84   82   85 1   
    85   82   94 1   
    86   83   84 2   
    87   83  102 1   
    88   85   86 1   
    89   85   95 1   
    90   85   96 1   
    91   86   87 ar  
    92   86   88 ar  
    93   87   89 ar  
    94   87   97 1   
    95   88   90 ar  
    96   88   98 1   
    97   89   91 ar  
    98   89   99 1   
    99   90   91 ar  
   100   90  100 1   
   101   91   92 1   
   102   92  101 1   
   103  102  103 1   
   104  102  110 1   
   105  103  104 1   
   106  103  106 1   
   107  103  111 1   
   108  104  105 2   
   109  104  121 1   
   110  106  107 1   
   111  106  108 1   
   112  106  112 1   
   113  107  109 1   
   114  107  113 1   
   115  107  114 1   
   116  108  115 1   
   117  108  116 1   
   118  108  117 1   
   119  109  118 1   
   120  109  119 1   
   121  109  120 1   
   122  121  122 1   
   123  121  127 1   
   124  122  123 1   
   125  122  125 1   
   126  122  128 1   
   127  123  124 2   
   128  123  132 1   
   129  125  126 1   
   130  125  129 1   
   131  125  130 1   
   132  126  131 1   
   133  132  133 1   
   134  132  137 1   
   135  133  134 1   
   136  133  136 1   
   137  133  138 1   
   138  134  135 2   
   139  134  142 1   
   140  136  139 1   
   141  136  140 1   
   142  136  141 1   
   143  142  143 1   
   144  142  147 1   
   145  143  144 1   
   146  143  146 1   
   147  143  148 1   
   148  144  145 2   
   149  144  152 1   
   150  146  149 1   
   151  146  150 1   
   152  146  151 1   
   153  152  153 1   
   154  152  161 1   
   155  153  154 1   
   156  153  156 1   
   157  153  162 1   
   158  154  155 2   
   159  154  167 1   
   160  156  157 1   
   161  156  163 1   
   162  156  164 1   
   163  157  158 1   
   164  157  165 1   
   165  157  166 1   
   166  158  159 1   
   167  158  160 1   
   168  167  168 1   
   169  167  172 1   
   170  168  169 1   
   171  168  170 1   
   172  168  171 1   
   173  174  175 1   
   174  174  176 1   
   175  177  178 1   
   176  177  179 1   
@<TRIPOS>SUBSTRUCTURE
     1 MOL         1 TEMP              0 ****  ****    0 ROOT
