@<TRIPOS>MOLECULE
MOL
  179   176     1     0     0
SMALL
resp


@<TRIPOS>ATOM
      1 C1          2.0330    3.5810    4.1000 c3        1 MOL     -0.191990
      2 C2          1.2110    3.3360    2.8420 c         1 MOL      0.600184
      3 O1          1.7150    3.4400    1.7300 o         1 MOL     -0.547512
      4 H1          3.0850    3.3880    3.8900 hc        1 MOL      0.049615
      5 H2          1.9100    4.6170    4.4180 hc        1 MOL      0.049615
      6 H3          1.6940    2.9140    4.8930 hc        1 MOL      0.049615
      7 N1         -0.1190    3.1550    3.0510 n         1 MOL     -0.684773
      8 C3         -1.1350    2.8100    2.0240 c3        1 MOL      0.317626
      9 C4         -1.7900    4.0970    1.4820 c         1 MOL      0.465295
     10 O2         -3.0020    4.3600    1.6230 o         1 MOL     -0.466822
     11 C5         -2.1670    1.8630    2.5700 c3        1 MOL     -0.261051
     12 C6         -3.0840    1.3530    1.4210 c         1 MOL      0.621406
     13 O3         -4.3030    1.1050    1.6920 o         1 MOL     -0.647747
     14 O4         -2.6630    1.1160    0.2660 o         1 MOL     -0.647747
     15 H4         -0.3020    3.0270    4.0440 hn        1 MOL      0.348433
     16 H5         -0.7010    2.3530    1.1300 h1        1 MOL     -0.002496
     17 H6         -2.8030    2.4330    3.2490 hc        1 MOL      0.065102
     18 H7         -1.7920    0.9710    3.0620 hc        1 MOL      0.065102
     19 N2         -0.9230    4.9600    0.8670 n         1 MOL     -0.324895
     20 C7         -1.3050    6.2410    0.2880 c3        1 MOL     -0.023899
     21 C8         -2.4070    6.1480   -0.8330 c         1 MOL      0.383366
     22 O5         -3.1990    7.0560   -1.0330 o         1 MOL     -0.512227
     23 C9         -0.0310    6.8860   -0.2590 c3        1 MOL     -0.305903
     24 C10         1.1190    6.9630    0.7480 c3        1 MOL      0.250389
     25 C11         2.1880    7.9540    0.2230 c3        1 MOL      0.038197
     26 C12         3.6230    7.6710    0.6830 c3        1 MOL     -0.002026
     27 N3          3.7660    8.0790    2.1360 n4        1 MOL     -0.442614
     28 H8          0.0580    4.7760    0.9980 hn        1 MOL      0.250946
     29 H9         -1.6810    6.7970    1.1600 h1        1 MOL      0.081716
     30 H10        -0.3180    7.8900   -0.5590 hc        1 MOL      0.128518
     31 H11         0.3140    6.2160   -1.0570 hc        1 MOL      0.128518
     32 H12         1.5640    5.9950    0.9820 hc        1 MOL     -0.052390
     33 H13         0.7840    7.2310    1.7460 hc        1 MOL     -0.052390
     34 H14         1.9760    8.9580    0.5880 hc        1 MOL     -0.007908
     35 H15         2.0620    8.0680   -0.8630 hc        1 MOL     -0.007908
     36 H16         4.2330    8.4080    0.1610 hx        1 MOL      0.110692
     37 H17         3.9760    6.6890    0.3610 hx        1 MOL      0.110692
     38 H18         3.2310    7.4700    2.7460 hn        1 MOL      0.350744
     39 H19         4.7580    8.0540    2.3110 hn        1 MOL      0.350744
     40 H20         3.3970    8.9940    2.3480 hn        1 MOL      0.350744
     41 N4         -2.5080    5.0070   -1.5150 n         1 MOL     -0.276617
     42 C13        -3.6090    4.6560   -2.4420 c3        1 MOL      0.109910
     43 C14        -4.9890    4.1840   -1.7830 c         1 MOL      0.424541
     44 O6         -6.0070    4.3490   -2.4720 o         1 MOL     -0.543908
     45 C15        -3.0330    3.5880   -3.4030 c3        1 MOL     -0.317113
     46 C16        -2.3630    2.3040   -2.8040 c         1 MOL      0.882523
     47 O7         -1.3120    2.3740   -2.1280 o         1 MOL     -0.771965
     48 O8         -2.8170    1.1670   -2.9940 o         1 MOL     -0.771965
     49 H21        -1.8470    4.2520   -1.4060 hn        1 MOL      0.202898
     50 H22        -3.9320    5.5780   -2.9040 h1        1 MOL      0.082230
     51 H23        -2.2700    4.1110   -3.9770 hc        1 MOL      0.067192
     52 H24        -3.8130    3.4670   -4.1530 hc        1 MOL      0.067192
     53 N5         -5.0040    3.7450   -0.5300 n         1 MOL     -0.067634
     54 C17        -6.2120    3.3500    0.1220 c3        1 MOL     -0.289156
     55 C18        -6.7340    1.9390   -0.2560 c         1 MOL      0.540486
     56 O9         -7.8920    1.6130    0.0540 o         1 MOL     -0.543471
     57 H25        -4.1320    3.6480   -0.0270 hn        1 MOL      0.141199
     58 H26        -6.9260    4.1530   -0.0550 h1        1 MOL      0.133911
     59 H27        -5.9990    3.4060    1.1840 h1        1 MOL      0.133911
     60 N6         -5.9250    1.0500   -0.8900 n         1 MOL     -0.149022
     61 C19        -6.4060   -0.2740   -1.2110 c3        1 MOL     -0.163893
     62 C20        -6.3980   -1.3870   -0.0900 c         1 MOL      0.252891
     63 O10        -7.0960   -2.3870   -0.2370 o         1 MOL     -0.440555
     64 C21        -5.5640   -0.7010   -2.4360 c3        1 MOL      0.016319
     65 C22        -4.4270   -1.5740   -2.0430 c         1 MOL      0.329539
     66 N7         -4.0240   -2.6040   -2.7460 n         1 MOL     -0.565689
     67 O11        -3.6760   -1.2690   -1.1100 o         1 MOL     -0.384727
     68 H28        -4.9190    1.1690   -0.9220 hn        1 MOL      0.069087
     69 H29        -7.4230   -0.1280   -1.5750 h1        1 MOL      0.137492
     70 H30        -5.3310    0.1850   -3.0210 hc        1 MOL      0.056860
     71 H31        -6.1450   -1.2540   -3.1730 hc        1 MOL      0.056860
     72 H32        -4.4360   -2.8260   -3.6420 hn        1 MOL      0.317238
     73 H33        -3.3010   -3.2160   -2.3970 hn        1 MOL      0.317238
     74 N8         -5.7130   -1.1570    1.0200 n         1 MOL      0.039787
     75 C23        -5.6170   -2.0190    2.1860 c3        1 MOL     -0.333275
     76 C24        -4.4780   -3.0470    2.2830 c         1 MOL      0.671242
     77 O12        -4.5650   -4.0020    3.0850 o         1 MOL     -0.567034
     78 H34        -5.3060   -0.2390    1.1510 hn        1 MOL      0.221037
     79 H35        -6.5370   -2.6080    2.2720 h1        1 MOL      0.122257
     80 H36        -5.6620   -1.3310    3.0240 h1        1 MOL      0.122257
     81 N9         -3.4590   -2.8160    1.4670 n         1 MOL     -0.614972
     82 C25        -2.3280   -3.7940    1.2580 c3        1 MOL      0.557133
     83 C26        -0.9850   -3.0720    1.0690 c         1 MOL      0.264760
     84 O13        -0.9840   -1.9110    0.7030 o         1 MOL     -0.616239
     85 C27        -2.6550   -4.8000    0.0870 c3        1 MOL     -0.166757
     86 C28        -4.0370   -5.4880    0.1940 ca        1 MOL      0.075613
     87 C29        -5.1610   -4.8680   -0.3750 ca        1 MOL     -0.215521
     88 C30        -4.1360   -6.7210    0.9140 ca        1 MOL     -0.215521
     89 C31        -6.4110   -5.5080   -0.2390 ca        1 MOL     -0.212233
     90 C32        -5.3770   -7.3460    1.0570 ca        1 MOL     -0.212233
     91 C33        -6.5370   -6.7480    0.4730 ca        1 MOL      0.297250
     92 O14        -7.7620   -7.2470    0.7040 oh        1 MOL     -0.455444
     93 H37        -3.5150   -2.0690    0.7940 hn        1 MOL      0.327852
     94 H38        -2.1940   -4.3880    2.1560 h1        1 MOL     -0.035043
     95 H39        -1.9490   -5.6360    0.1240 hc        1 MOL      0.020217
     96 H40        -2.5800   -4.3210   -0.8850 hc        1 MOL      0.020217
     97 H41        -5.1290   -3.8920   -0.8400 ha        1 MOL      0.136637
     98 H42        -3.1870   -7.0630    1.3080 ha        1 MOL      0.136637
     99 H43        -7.3170   -5.0730   -0.6480 ha        1 MOL      0.135178
    100 H44        -5.4490   -8.2150    1.6990 ha        1 MOL      0.135178
    101 H45        -7.7260   -8.1060    1.1220 ho        1 MOL      0.353301
    102 N10         0.1560   -3.6990    1.3190 n         1 MOL     -0.525971
    103 C34         1.4490   -2.9470    1.3240 c3        1 MOL     -0.210188
    104 C35         2.5570   -3.8810    0.8470 c         1 MOL      0.482805
    105 O15         3.0010   -4.8150    1.4870 o         1 MOL     -0.525796
    106 C36         1.7430   -2.4770    2.8040 c3        1 MOL      0.334898
    107 C37         0.8150   -1.4330    3.3820 c3        1 MOL     -0.032321
    108 C38         3.2070   -2.0520    3.1600 c3        1 MOL     -0.524150
    109 C39         0.9800   -0.1260    2.6350 c3        1 MOL      0.147032
    110 H46         0.1310   -4.5640    1.8320 hn        1 MOL      0.354713
    111 H47         1.4640   -2.0770    0.6720 h1        1 MOL      0.481506
    112 H48         1.5700   -3.3390    3.4510 hc        1 MOL     -0.037620
    113 H49         1.0630   -1.1580    4.4050 hc        1 MOL     -0.008060
    114 H50        -0.2110   -1.7840    3.2920 hc        1 MOL     -0.008060
    115 H51         3.6130   -1.4430    2.3560 hc        1 MOL      0.109011
    116 H52         3.1740   -1.5820    4.1420 hc        1 MOL      0.109011
    117 H53         3.7800   -2.9580    3.3630 hc        1 MOL      0.109011
    118 H54         0.6250    0.6500    3.3160 hc        1 MOL     -0.027237
    119 H55         1.9940    0.1500    2.3460 hc        1 MOL     -0.027237
    120 H56         0.3610   -0.0460    1.7460 hc        1 MOL     -0.027237
    121 N11         3.0920   -3.5030   -0.3090 n         1 MOL     -0.273828
    122 C40         4.3350   -3.9630   -0.9470 c3        1 MOL      0.077207
    123 C41         5.6530   -3.4540   -0.3340 c         1 MOL      0.438936
    124 O16         5.6050   -2.5510    0.4990 o         1 MOL     -0.339389
    125 C42         4.3370   -3.4270   -2.4050 c3        1 MOL     -0.319723
    126 O17         4.5230   -2.0110   -2.3550 oh        1 MOL     -0.336871
    127 H57         2.6760   -2.6630   -0.6860 hn        1 MOL      0.088210
    128 H58         4.3810   -5.0400   -0.8650 h1        1 MOL      0.072908
    129 H59         3.3940   -3.7110   -2.8750 h1        1 MOL      0.137571
    130 H60         5.1210   -3.9420   -2.9540 h1        1 MOL      0.137571
    131 H61         4.5490   -1.6000   -3.2190 ho        1 MOL      0.376607
    132 N12         6.7740   -4.1280   -0.7120 n         1 MOL     -0.447786
    133 C43         8.0880   -3.7240   -0.2200 c3        1 MOL      0.164488
    134 C44         8.4470   -2.3230   -0.7080 c         1 MOL      0.452975
    135 O18         9.0580   -1.6190    0.0100 o         1 MOL     -0.498284
    136 C45         9.1690   -4.7660   -0.5550 c3        1 MOL     -0.284001
    137 H62         6.7360   -4.9240   -1.3330 hn        1 MOL      0.290359
    138 H63         8.0590   -3.5470    0.8590 h1        1 MOL      0.065454
    139 H64         9.0790   -5.6840    0.0240 hc        1 MOL      0.090196
    140 H65         9.0620   -4.9570   -1.6210 hc        1 MOL      0.090196
    141 H66        10.1900   -4.4030   -0.4290 hc        1 MOL      0.090196
    142 N13         8.0470   -1.8440   -1.8960 n         1 MOL     -0.348841
    143 C46         8.1620   -0.5250   -2.4350 c3        1 MOL      0.141615
    144 C47         7.4430    0.5370   -1.6100 c         1 MOL      0.337494
    145 O19         7.9600    1.6020   -1.2820 o         1 MOL     -0.498527
    146 C48         7.6910   -0.5840   -3.8240 c3        1 MOL     -0.320066
    147 H67         7.5790   -2.5030   -2.5090 hn        1 MOL      0.222742
    148 H68         9.2030   -0.2250   -2.4440 h1        1 MOL      0.083186
    149 H69         6.7270   -1.0660   -3.9250 hc        1 MOL      0.085277
    150 H70         7.6030    0.4060   -4.2740 hc        1 MOL      0.085277
    151 H71         8.3520   -1.1700   -4.4720 hc        1 MOL      0.085277
    152 N14         6.2250    0.2460   -1.0430 n         1 MOL      0.063393
    153 C49         5.4840    1.2290   -0.2040 c3        1 MOL     -0.190819
    154 C50         6.0710    1.3490    1.2040 c         1 MOL      0.470955
    155 O20         6.2270    2.4660    1.7820 o         1 MOL     -0.561833
    156 C51         4.0620    0.5510   -0.0370 c3        1 MOL      0.268820
    157 C52         3.1830    0.6660   -1.2520 c3        1 MOL     -0.027990
    158 C53         1.8530    0.0660   -1.0740 c         1 MOL      0.576155
    159 O21         1.5540   -1.0620   -1.4360 o         1 MOL     -0.691576
    160 O22         0.9690    0.8290   -0.5910 o         1 MOL     -0.691576
    161 H72         5.7880   -0.6440   -1.2240 hn        1 MOL     -0.110433
    162 H73         5.4950    2.1900   -0.7200 h1        1 MOL      0.117523
    163 H74         3.6230    1.0010    0.8520 hc        1 MOL     -0.052955
    164 H75         4.1920   -0.5020    0.2180 hc        1 MOL     -0.052955
    165 H76         3.6370    0.3630   -2.1860 hc        1 MOL     -0.025149
    166 H77         3.0710    1.7480   -1.3120 hc        1 MOL     -0.025149
    167 N15         6.5190    0.2020    1.7860 n         1 MOL     -0.069574
    168 C54         7.3670    0.2140    2.9510 c3        1 MOL     -0.484232
    169 H78         8.3980    0.0320    2.6500 h1        1 MOL      0.161163
    170 H79         7.2980    1.1850    3.4410 h1        1 MOL      0.161163
    171 H80         7.0470   -0.5670    3.6410 h1        1 MOL      0.161163
    172 H81         6.4650   -0.6420    1.2420 hn        1 MOL      0.177550
    173 Ca1        -1.2590   -0.2510   -1.3450 Ca        1 MOL      1.681508
    174 O23        -0.1960   -0.3240   -3.8770 oh        1 MOL     -0.817950
    175 H82         0.2160    0.5280   -4.0560 ho        1 MOL      0.407293
    176 H83         0.4800   -0.9680   -4.0710 ho        1 MOL      0.407293
    177 O24        -0.6900   -2.7850   -2.2550 oh        1 MOL     -0.817950
    178 H84        -0.6830   -3.4010   -2.9800 ho        1 MOL      0.407293
    179 H85         0.2030   -2.8040   -1.9040 ho        1 MOL      0.407293
@<TRIPOS>BOND
     1    1    2 1   
     2    1    4 1   
     3    1    5 1   
     4    1    6 1   
     5    2    3 2   
     6    2    7 1   
     7    7    8 1   
     8    7   15 1   
     9    8    9 1   
    10    8   11 1   
    11    8   16 1   
    12    9   10 2   
    13    9   19 1   
    14   11   12 1   
    15   11   17 1   
    16   11   18 1   
    17   12   13 1   
    18   12   14 1   
    19   19   20 1   
    20   19   28 1   
    21   20   21 1   
    22   20   23 1   
    23   20   29 1   
    24   21   22 2   
    25   21   41 1   
    26   23   24 1   
    27   23   30 1   
    28   23   31 1   
    29   24   25 1   
    30   24   32 1   
    31   24   33 1   
    32   25   26 1   
    33   25   34 1   
    34   25   35 1   
    35   26   27 1   
    36   26   36 1   
    37   26   37 1   
    38   27   38 1   
    39   27   39 1   
    40   27   40 1   
    41   41   42 1   
    42   41   49 1   
    43   42   43 1   
    44   42   45 1   
    45   42   50 1   
    46   43   44 2   
    47   43   53 1   
    48   45   46 1   
    49   45   51 1   
    50   45   52 1   
    51   46   47 1   
    52   46   48 1   
    53   53   54 1   
    54   53   57 1   
    55   54   55 1   
    56   54   58 1   
    57   54   59 1   
    58   55   56 2   
    59   55   60 1   
    60   60   61 1   
    61   60   68 1   
    62   61   62 1   
    63   61   64 1   
    64   61   69 1   
    65   62   63 2   
    66   62   74 1   
    67   64   65 1   
    68   64   70 1   
    69   64   71 1   
    70   65   66 1   
    71   65   67 2   
    72   66   72 1   
    73   66   73 1   
    74   74   75 1   
    75   74   78 1   
    76   75   76 1   
    77   75   79 1   
    78   75   80 1   
    79   76   77 2   
    80   76   81 1   
    81   81   82 1   
    82   81   93 1   
    83   82   83 1   
    84   82   85 1   
    85   82   94 1   
    86   83   84 2   
    87   83  102 1   
    88   85   86 1   
    89   85   95 1   
    90   85   96 1   
    91   86   87 ar  
    92   86   88 ar  
    93   87   89 ar  
    94   87   97 1   
    95   88   90 ar  
    96   88   98 1   
    97   89   91 ar  
    98   89   99 1   
    99   90   91 ar  
   100   90  100 1   
   101   91   92 1   
   102   92  101 1   
   103  102  103 1   
   104  102  110 1   
   105  103  104 1   
   106  103  106 1   
   107  103  111 1   
   108  104  105 2   
   109  104  121 1   
   110  106  107 1   
   111  106  108 1   
   112  106  112 1   
   113  107  109 1   
   114  107  113 1   
   115  107  114 1   
   116  108  115 1   
   117  108  116 1   
   118  108  117 1   
   119  109  118 1   
   120  109  119 1   
   121  109  120 1   
   122  121  122 1   
   123  121  127 1   
   124  122  123 1   
   125  122  125 1   
   126  122  128 1   
   127  123  124 2   
   128  123  132 1   
   129  125  126 1   
   130  125  129 1   
   131  125  130 1   
   132  126  131 1   
   133  132  133 1   
   134  132  137 1   
   135  133  134 1   
   136  133  136 1   
   137  133  138 1   
   138  134  135 2   
   139  134  142 1   
   140  136  139 1   
   141  136  140 1   
   142  136  141 1   
   143  142  143 1   
   144  142  147 1   
   145  143  144 1   
   146  143  146 1   
   147  143  148 1   
   148  144  145 2   
   149  144  152 1   
   150  146  149 1   
   151  146  150 1   
   152  146  151 1   
   153  152  153 1   
   154  152  161 1   
   155  153  154 1   
   156  153  156 1   
   157  153  162 1   
   158  154  155 2   
   159  154  167 1   
   160  156  157 1   
   161  156  163 1   
   162  156  164 1   
   163  157  158 1   
   164  157  165 1   
   165  157  166 1   
   166  158  159 1   
   167  158  160 1   
   168  167  168 1   
   169  167  172 1   
   170  168  169 1   
   171  168  170 1   
   172  168  171 1   
   173  174  175 1   
   174  174  176 1   
   175  177  178 1   
   176  177  179 1   
@<TRIPOS>SUBSTRUCTURE
     1 MOL         1 TEMP              0 ****  ****    0 ROOT
