@<TRIPOS>MOLECULE
MOL
  189   185     1     0     0
SMALL
resp


@<TRIPOS>ATOM
      1 C1         -0.4080    2.4490    6.2450 c3        1 MOL     -0.354981
      2 C2         -0.6200    2.3690    4.7350 c         1 MOL      0.764313
      3 O1         -0.4870    1.3270    4.1110 o         1 MOL     -0.647979
      4 H1         -1.3530    2.6930    6.7320 hc        1 MOL      0.092132
      5 H2         -0.0480    1.4890    6.6140 hc        1 MOL      0.092132
      6 H3          0.3250    3.2240    6.4700 hc        1 MOL      0.092132
      7 N1         -1.1170    3.4550    4.1170 n         1 MOL     -0.633527
      8 C3         -1.8240    3.4480    2.8780 c3        1 MOL      0.270593
      9 C4         -1.7320    4.7120    1.9680 c         1 MOL      0.512676
     10 O2         -1.7330    5.7940    2.5610 o         1 MOL     -0.608526
     11 C5         -3.2700    3.3230    3.2470 c3        1 MOL     -0.203641
     12 C6         -4.1200    3.1670    2.0530 c         1 MOL      0.585633
     13 O3         -3.8700    2.2510    1.2160 o         1 MOL     -0.634579
     14 O4         -5.1370    3.8590    1.8040 o         1 MOL     -0.634579
     15 H4         -1.3290    4.2770    4.6730 hn        1 MOL      0.306128
     16 H5         -1.4860    2.6190    2.2550 h1        1 MOL      0.035687
     17 H6         -3.5570    4.2510    3.7500 hc        1 MOL      0.034155
     18 H7         -3.5120    2.4880    3.9020 hc        1 MOL      0.034155
     19 N2         -1.7970    4.5440    0.7120 n         1 MOL     -0.117659
     20 C7         -1.8350    5.5370   -0.3720 c3        1 MOL     -0.086231
     21 C8         -2.9650    5.3140   -1.4180 c         1 MOL      0.501527
     22 O5         -3.1840    6.2070   -2.2030 o         1 MOL     -0.581399
     23 C9         -0.4470    5.7750   -1.0210 c3        1 MOL      0.142900
     24 C10         0.2840    4.6150   -1.7910 c3        1 MOL     -0.052789
     25 C11         0.4610    6.3820    0.0270 c3        1 MOL     -0.120276
     26 C12         1.2340    5.0510   -2.7840 c3        1 MOL     -0.421460
     27 H8         -1.5330    3.6200    0.4070 hn        1 MOL      0.044719
     28 H9         -2.1140    6.4950    0.0650 h1        1 MOL      0.083366
     29 H10        -0.5920    6.5990   -1.7150 hc        1 MOL     -0.005229
     30 H11        -0.5260    4.0320   -2.2190 hc        1 MOL      0.102478
     31 H12         0.8410    3.9130   -1.1650 hc        1 MOL      0.102478
     32 H13         0.0700    7.3080    0.4320 hc        1 MOL      0.011048
     33 H14         0.5370    5.6500    0.8390 hc        1 MOL      0.011048
     34 H15         1.4560    6.5680   -0.3790 hc        1 MOL      0.011048
     35 H16         2.0710    5.6210   -2.3690 hc        1 MOL      0.112070
     36 H17         1.6470    4.1690   -3.2590 hc        1 MOL      0.112070
     37 H18         0.6730    5.6690   -3.4840 hc        1 MOL      0.112070
     38 N3         -3.6260    4.1780   -1.3410 n         1 MOL     -0.304712
     39 C13        -4.5030    3.8770   -2.5080 c3        1 MOL      0.125423
     40 C14        -5.7520    3.0480   -2.1460 c         1 MOL      0.254945
     41 O6         -6.6150    2.9100   -3.0140 o         1 MOL     -0.516711
     42 C15        -3.7410    3.1390   -3.6370 c3        1 MOL     -0.329078
     43 C16        -2.9710    1.9280   -3.0450 c         1 MOL      0.840459
     44 O7         -3.3100    1.2440   -2.0440 o         1 MOL     -0.746294
     45 O8         -1.8400    1.6060   -3.4840 o         1 MOL     -0.746294
     46 H19        -3.3780    3.5520   -0.5810 hn        1 MOL      0.202419
     47 H20        -4.9740    4.7850   -2.8950 h1        1 MOL      0.102933
     48 H21        -3.0300    3.8680   -4.0050 hc        1 MOL      0.083381
     49 H22        -4.3740    2.7740   -4.4470 hc        1 MOL      0.083381
     50 N4         -6.0630    2.6430   -0.8700 n         1 MOL     -0.027978
     51 C17        -7.2620    1.9640   -0.3910 c3        1 MOL     -0.022425
     52 C18        -7.5180    0.5980   -1.1140 c         1 MOL      0.403936
     53 O9         -8.6740    0.2480   -1.3500 o         1 MOL     -0.587204
     54 H23        -5.4580    2.9890   -0.1270 hn        1 MOL      0.059980
     55 H24        -8.1390    2.5950   -0.5550 h1        1 MOL      0.043499
     56 H25        -7.1730    1.8330    0.6870 h1        1 MOL      0.043499
     57 N5         -6.4810   -0.1950   -1.4910 n         1 MOL     -0.041721
     58 C19        -6.6470   -1.4020   -2.3440 c3        1 MOL     -0.024345
     59 C20        -6.8440   -2.6450   -1.4950 c         1 MOL      0.405913
     60 O10        -6.7510   -3.7810   -1.9920 o         1 MOL     -0.508334
     61 C21        -5.4470   -1.6260   -3.3070 c3        1 MOL     -0.340789
     62 C22        -4.1410   -1.9400   -2.5240 c         1 MOL      0.670272
     63 O11        -4.1140   -1.7560   -1.2820 o         1 MOL     -0.640762
     64 O12        -3.1460   -2.3270   -3.1960 o         1 MOL     -0.640762
     65 H26        -5.5570   -0.1560   -1.1010 hn        1 MOL      0.011892
     66 H27        -7.5780   -1.3760   -2.9200 h1        1 MOL      0.122669
     67 H28        -5.2840   -0.7150   -3.8840 hc        1 MOL      0.115111
     68 H29        -5.7280   -2.4090   -4.0140 hc        1 MOL      0.115111
     69 N6         -7.0090   -2.4950   -0.1500 n         1 MOL     -0.359770
     70 C23        -7.1070   -3.6780    0.7940 c3        1 MOL      0.007923
     71 C24        -5.8700   -4.5340    1.0470 c         1 MOL      0.466449
     72 O13        -6.0020   -5.6690    1.6500 o         1 MOL     -0.603846
     73 H30        -6.9670   -1.5420    0.1550 hn        1 MOL      0.239999
     74 H31        -7.9340   -4.3200    0.4980 h1        1 MOL      0.057494
     75 H32        -7.4510   -3.3480    1.7660 h1        1 MOL      0.057494
     76 N7         -4.6800   -4.0840    0.6980 n         1 MOL     -0.285164
     77 C25        -3.3790   -4.8100    0.8830 c3        1 MOL     -0.006130
     78 C26        -2.2640   -3.7400    1.2910 c         1 MOL      0.548784
     79 O14        -2.3740   -2.5950    0.8950 o         1 MOL     -0.592347
     80 C27        -3.0680   -5.6560   -0.3010 c3        1 MOL     -0.161667
     81 C28        -3.0400   -4.9040   -1.5640 c3        1 MOL      0.180968
     82 C29        -2.5150   -5.7350   -2.6990 c         1 MOL      0.441954
     83 N8         -2.1920   -5.0140   -3.8200 n         1 MOL     -0.697970
     84 O15        -2.2730   -6.9700   -2.6140 o         1 MOL     -0.578362
     85 H33        -4.6980   -3.2400    0.1370 hn        1 MOL      0.261465
     86 H34        -3.6100   -5.3880    1.7730 h1        1 MOL      0.053151
     87 H35        -3.8560   -6.3830   -0.4820 hc        1 MOL      0.057155
     88 H36        -2.1770   -6.2540   -0.1180 hc        1 MOL      0.057155
     89 H37        -2.3400   -4.0690   -1.5740 hc        1 MOL      0.038665
     90 H38        -4.0600   -4.6320   -1.8190 hc        1 MOL      0.038665
     91 H39        -2.3480   -4.0290   -3.9510 hn        1 MOL      0.320676
     92 H40        -1.8350   -5.6480   -4.5160 hn        1 MOL      0.320676
     93 N9         -1.2930   -4.1170    2.0600 n         1 MOL     -0.543259
     94 C30        -0.1220   -3.2410    2.4300 c3        1 MOL     -0.007848
     95 C31         0.9470   -3.4270    1.3320 c         1 MOL      0.690452
     96 O16         1.1750   -4.6120    0.9450 o         1 MOL     -0.606613
     97 C32         0.2940   -3.7140    3.8610 c3        1 MOL      0.224471
     98 C33         0.5790   -5.1790    4.0860 c3        1 MOL     -0.288577
     99 C34         1.4880   -2.9510    4.3950 c3        1 MOL     -0.288577
    100 H41        -1.0790   -5.0950    2.1990 hn        1 MOL      0.317391
    101 H42        -0.4690   -2.2190    2.5750 h1        1 MOL      0.126455
    102 H43        -0.5780   -3.4670    4.4620 hc        1 MOL      0.004762
    103 H44         0.6870   -5.2040    5.1680 hc        1 MOL      0.060255
    104 H45        -0.2750   -5.8130    3.8360 hc        1 MOL      0.060255
    105 H46         1.4720   -5.4970    3.5440 hc        1 MOL      0.060255
    106 H47         1.6000   -3.0880    5.4720 hc        1 MOL      0.060255
    107 H48         2.3850   -3.2550    3.8630 hc        1 MOL      0.060255
    108 H49         1.3680   -1.8740    4.3240 hc        1 MOL      0.060255
    109 N10         1.6600   -2.3950    0.9330 n         1 MOL     -0.409663
    110 C35         2.8240   -2.5410    0.0400 c3        1 MOL      0.208968
    111 C36         4.1510   -2.1730    0.6540 c         1 MOL      0.134332
    112 O17         4.1820   -1.6780    1.8000 o         1 MOL     -0.312287
    113 C37         2.4510   -1.5410   -1.1040 c3        1 MOL     -0.050673
    114 C38         3.5520   -1.1990   -2.1530 c         1 MOL      0.666428
    115 N11         3.6390   -2.1420   -3.0640 n         1 MOL     -0.832406
    116 O18         4.2300   -0.1790   -2.0980 o         1 MOL     -0.525836
    117 H50         1.4320   -1.4630    1.2340 hn        1 MOL      0.208178
    118 H51         2.8310   -3.5250   -0.4230 h1        1 MOL      0.030162
    119 H52         2.2990   -0.5420   -0.7080 hc        1 MOL      0.056798
    120 H53         1.5140   -1.8620   -1.5770 hc        1 MOL      0.056798
    121 H54         3.0130   -2.9130   -3.2330 hn        1 MOL      0.374644
    122 H55         4.2710   -1.9210   -3.8210 hn        1 MOL      0.374644
    123 N12         5.3780   -2.3620    0.1130 n         1 MOL     -0.123571
    124 C39         6.6910   -2.1520    0.7460 c3        1 MOL     -0.039385
    125 C40         6.9920   -0.6590    0.7720 c         1 MOL      0.436151
    126 O19         7.7800   -0.1760    1.6160 o         1 MOL     -0.576219
    127 C41         7.7490   -3.0080    0.0010 c3        1 MOL     -0.170324
    128 C42         8.1860   -2.4690   -1.3250 ca        1 MOL      0.146746
    129 C43         9.3940   -1.6880   -1.2900 ca        1 MOL     -0.291088
    130 C44         7.4240   -2.6880   -2.5220 ca        1 MOL     -0.291088
    131 C45         9.7990   -1.0200   -2.4440 ca        1 MOL     -0.177513
    132 C46         7.9820   -2.1320   -3.6900 ca        1 MOL     -0.177513
    133 C47         9.1030   -1.2730   -3.6520 ca        1 MOL      0.263763
    134 O20         9.4630   -0.7090   -4.8310 oh        1 MOL     -0.497533
    135 H56         5.3320   -2.9000   -0.7350 hn        1 MOL      0.144444
    136 H57         6.7280   -2.5390    1.7610 h1        1 MOL      0.116961
    137 H58         7.4160   -4.0220   -0.2170 hc        1 MOL      0.059520
    138 H59         8.6460   -3.0740    0.6200 hc        1 MOL      0.059520
    139 H60         9.9630   -1.4520   -0.4130 ha        1 MOL      0.182198
    140 H61         6.5420   -3.3090   -2.4610 ha        1 MOL      0.182198
    141 H62        10.6710   -0.3770   -2.4530 ha        1 MOL      0.136495
    142 H63         7.5310   -2.3440   -4.6490 ha        1 MOL      0.136495
    143 H64        10.2420   -0.1500   -4.7990 ho        1 MOL      0.392168
    144 N13         6.3910    0.1850   -0.0270 n         1 MOL     -0.078762
    145 C48         6.3290    1.5840    0.1810 c3        1 MOL     -0.102376
    146 C49         5.3600    2.0300    1.3110 c         1 MOL      0.331852
    147 O21         5.5340    3.0730    1.9320 o         1 MOL     -0.495824
    148 C50         5.9460    2.3190   -1.1780 c3        1 MOL     -0.214581
    149 C51         6.8160    2.0560   -2.4070 c3        1 MOL     -0.076070
    150 C52         6.7060    3.0660   -3.5120 c         1 MOL      0.710744
    151 O22         7.2970    4.1880   -3.4160 o         1 MOL     -0.751568
    152 O23         6.0170    2.8320   -4.5230 o         1 MOL     -0.751568
    153 H65         5.9160   -0.2090   -0.8320 hn        1 MOL      0.221164
    154 H66         7.3560    1.8150    0.4600 h1        1 MOL      0.121060
    155 H67         6.0160    3.3620   -0.8520 hc        1 MOL      0.111227
    156 H68         4.9320    2.0460   -1.4670 hc        1 MOL      0.111227
    157 H69         6.5710    1.0380   -2.7070 hc        1 MOL     -0.004284
    158 H70         7.8570    2.1620   -2.0940 hc        1 MOL     -0.004284
    159 N14         4.3120    1.2330    1.6430 n         1 MOL      0.061578
    160 C53         3.4260    1.4020    2.7690 c3        1 MOL     -0.342302
    161 C54         3.8580    0.7740    4.1300 c         1 MOL      0.615460
    162 O24         3.6350    1.3350    5.1970 o         1 MOL     -0.569119
    163 C55         2.0410    0.8800    2.3600 c3        1 MOL      0.239502
    164 C56         1.2750    1.8320    1.3720 c3        1 MOL     -0.257156
    165 C57         0.1210    1.1490    0.6550 c         1 MOL      0.794994
    166 O25         0.0110   -0.0690    0.7650 o         1 MOL     -0.720599
    167 O26        -0.7250    1.8820    0.0600 o         1 MOL     -0.720599
    168 H71         4.2990    0.3710    1.1160 hn        1 MOL     -0.077114
    169 H72         3.2420    2.4720    2.8690 h1        1 MOL      0.138923
    170 H73         1.4280    0.6310    3.2270 hc        1 MOL     -0.007278
    171 H74         2.1500   -0.1340    1.9690 hc        1 MOL     -0.007278
    172 H75         2.0200    2.0330    0.6060 hc        1 MOL      0.050726
    173 H76         0.8550    2.6850    1.9130 hc        1 MOL      0.050726
    174 N15         4.7830   -0.2290    4.1290 n         1 MOL     -0.281513
    175 C58         5.0980   -1.0010    5.3260 c3        1 MOL     -0.138045
    176 H77         6.0720   -1.4750    5.2070 h1        1 MOL      0.066710
    177 H78         5.1210   -0.3380    6.1910 h1        1 MOL      0.066710
    178 H79         4.3370   -1.7670    5.4750 h1        1 MOL      0.066710
    179 H80         4.7470   -0.7050    3.2400 hn        1 MOL      0.171385
    180 Ca1        -2.6320    0.0240    0.1490 Ca        1 MOL      1.833723
    181 O27        -5.2630   -0.1130    1.6110 oh        1 MOL     -0.908086
    182 H81        -6.1030   -0.2940    2.0360 ho        1 MOL      0.423820
    183 H82        -5.1490    0.8300    1.7070 ho        1 MOL      0.423820
    184 O28        -2.3700    0.0700    2.7650 oh        1 MOL     -0.908086
    185 H83        -1.5850    0.2270    3.2960 ho        1 MOL      0.423820
    186 H84        -3.0870    0.0650    3.3890 ho        1 MOL      0.423820
    187 O29        -1.1080   -0.9460   -1.9380 oh        1 MOL     -0.908086
    188 H85        -1.6680   -1.5170   -2.4630 ho        1 MOL      0.423820
    189 H86        -0.8800   -0.2320   -2.5340 ho        1 MOL      0.423820
@<TRIPOS>BOND
     1    1    2 1   
     2    1    4 1   
     3    1    5 1   
     4    1    6 1   
     5    2    3 2   
     6    2    7 1   
     7    7    8 1   
     8    7   15 1   
     9    8    9 1   
    10    8   11 1   
    11    8   16 1   
    12    9   10 2   
    13    9   19 1   
    14   11   12 1   
    15   11   17 1   
    16   11   18 1   
    17   12   13 1   
    18   12   14 1   
    19   19   20 1   
    20   19   27 1   
    21   20   21 1   
    22   20   23 1   
    23   20   28 1   
    24   21   22 2   
    25   21   38 1   
    26   23   24 1   
    27   23   25 1   
    28   23   29 1   
    29   24   26 1   
    30   24   30 1   
    31   24   31 1   
    32   25   32 1   
    33   25   33 1   
    34   25   34 1   
    35   26   35 1   
    36   26   36 1   
    37   26   37 1   
    38   38   39 1   
    39   38   46 1   
    40   39   40 1   
    41   39   42 1   
    42   39   47 1   
    43   40   41 2   
    44   40   50 1   
    45   42   43 1   
    46   42   48 1   
    47   42   49 1   
    48   43   44 1   
    49   43   45 1   
    50   50   51 1   
    51   50   54 1   
    52   51   52 1   
    53   51   55 1   
    54   51   56 1   
    55   52   53 2   
    56   52   57 1   
    57   57   58 1   
    58   57   65 1   
    59   58   59 1   
    60   58   61 1   
    61   58   66 1   
    62   59   60 2   
    63   59   69 1   
    64   61   62 1   
    65   61   67 1   
    66   61   68 1   
    67   62   63 1   
    68   62   64 1   
    69   69   70 1   
    70   69   73 1   
    71   70   71 1   
    72   70   74 1   
    73   70   75 1   
    74   71   72 2   
    75   71   76 1   
    76   76   77 1   
    77   76   85 1   
    78   77   78 1   
    79   77   80 1   
    80   77   86 1   
    81   78   79 2   
    82   78   93 1   
    83   80   81 1   
    84   80   87 1   
    85   80   88 1   
    86   81   82 1   
    87   81   89 1   
    88   81   90 1   
    89   82   83 1   
    90   82   84 2   
    91   83   91 1   
    92   83   92 1   
    93   93   94 1   
    94   93  100 1   
    95   94   95 1   
    96   94   97 1   
    97   94  101 1   
    98   95   96 2   
    99   95  109 1   
   100   97   98 1   
   101   97   99 1   
   102   97  102 1   
   103   98  103 1   
   104   98  104 1   
   105   98  105 1   
   106   99  106 1   
   107   99  107 1   
   108   99  108 1   
   109  109  110 1   
   110  109  117 1   
   111  110  111 1   
   112  110  113 1   
   113  110  118 1   
   114  111  112 2   
   115  111  123 1   
   116  113  114 1   
   117  113  119 1   
   118  113  120 1   
   119  114  115 1   
   120  114  116 2   
   121  115  121 1   
   122  115  122 1   
   123  123  124 1   
   124  123  135 1   
   125  124  125 1   
   126  124  127 1   
   127  124  136 1   
   128  125  126 2   
   129  125  144 1   
   130  127  128 1   
   131  127  137 1   
   132  127  138 1   
   133  128  129 ar  
   134  128  130 ar  
   135  129  131 ar  
   136  129  139 1   
   137  130  132 ar  
   138  130  140 1   
   139  131  133 ar  
   140  131  141 1   
   141  132  133 ar  
   142  132  142 1   
   143  133  134 1   
   144  134  143 1   
   145  144  145 1   
   146  144  153 1   
   147  145  146 1   
   148  145  148 1   
   149  145  154 1   
   150  146  147 2   
   151  146  159 1   
   152  148  149 1   
   153  148  155 1   
   154  148  156 1   
   155  149  150 1   
   156  149  157 1   
   157  149  158 1   
   158  150  151 1   
   159  150  152 1   
   160  159  160 1   
   161  159  168 1   
   162  160  161 1   
   163  160  163 1   
   164  160  169 1   
   165  161  162 2   
   166  161  174 1   
   167  163  164 1   
   168  163  170 1   
   169  163  171 1   
   170  164  165 1   
   171  164  172 1   
   172  164  173 1   
   173  165  166 1   
   174  165  167 1   
   175  174  175 1   
   176  174  179 1   
   177  175  176 1   
   178  175  177 1   
   179  175  178 1   
   180  181  182 1   
   181  181  183 1   
   182  184  185 1   
   183  184  186 1   
   184  187  188 1   
   185  187  189 1   
@<TRIPOS>SUBSTRUCTURE
     1 MOL         1 TEMP              0 ****  ****    0 ROOT
