@<TRIPOS>MOLECULE
MOL
  189   185     1     0     0
SMALL
resp


@<TRIPOS>ATOM
      1 C1         -0.6350    2.6900    6.2960 c3        1 MOL     -0.312073
      2 C2         -0.9120    2.4320    4.7710 c         1 MOL      0.714913
      3 O1          0.0760    2.3570    4.0570 o         1 MOL     -0.608329
      4 H1         -0.9700    1.8300    6.8760 hc        1 MOL      0.084529
      5 H2          0.4340    2.8380    6.4520 hc        1 MOL      0.084529
      6 H3         -1.1760    3.5800    6.6180 hc        1 MOL      0.084529
      7 N1         -2.1630    2.4390    4.2170 n         1 MOL     -0.667452
      8 C3         -2.5370    2.2170    2.8120 c3        1 MOL      0.091479
      9 C4         -2.7480    3.5940    2.1580 c         1 MOL      0.558511
     10 O2         -3.6540    4.3440    2.4510 o         1 MOL     -0.552561
     11 C5         -3.7480    1.2740    2.7600 c3        1 MOL     -0.262364
     12 C6         -4.0200    0.8820    1.2860 c         1 MOL      0.754080
     13 O3         -3.2580    1.0670    0.3080 o         1 MOL     -0.710147
     14 O4         -5.1780    0.4500    1.1150 o         1 MOL     -0.710147
     15 H4         -2.9300    2.6990    4.8170 hn        1 MOL      0.337598
     16 H5         -1.7440    1.6380    2.3360 h1        1 MOL      0.011902
     17 H6         -4.5950    1.9230    2.9660 hc        1 MOL      0.081625
     18 H7         -3.6740    0.3960    3.3840 hc        1 MOL      0.081625
     19 N2         -1.9320    3.7070    1.1340 n         1 MOL     -0.158707
     20 C7         -1.9130    4.9370    0.2320 c3        1 MOL     -0.280709
     21 C8         -3.0820    5.0930   -0.7400 c         1 MOL      0.598112
     22 O5         -3.3040    6.1610   -1.2920 o         1 MOL     -0.584974
     23 C9         -0.6420    5.0370   -0.5070 c3        1 MOL      0.095192
     24 C10         0.4670    5.3500    0.4710 c3        1 MOL     -0.025835
     25 C11         1.8860    5.5060   -0.2270 c3        1 MOL     -0.198853
     26 C12         3.1140    5.3350    0.7210 c3        1 MOL      0.240486
     27 N3          4.3200    5.5270   -0.0340 n4        1 MOL     -0.350641
     28 H8         -1.3090    2.9420    0.9650 hn        1 MOL      0.123042
     29 H9         -2.0450    5.7560    0.9360 h1        1 MOL      0.111936
     30 H10        -0.6270    5.9120   -1.1620 hc        1 MOL      0.035919
     31 H11        -0.4980    4.1960   -1.1730 hc        1 MOL      0.035919
     32 H12         0.5090    4.6000    1.2480 hc        1 MOL      0.043665
     33 H13         0.2150    6.2560    1.0290 hc        1 MOL      0.043665
     34 H14         1.9640    6.4490   -0.7650 hc        1 MOL      0.045475
     35 H15         1.9270    4.6960   -0.9460 hc        1 MOL      0.045475
     36 H16         3.0650    4.3810    1.2420 hx        1 MOL      0.032175
     37 H17         3.0780    6.1440    1.4490 hx        1 MOL      0.032175
     38 H18         5.0980    5.0110    0.3430 hn        1 MOL      0.302786
     39 H19         4.0960    5.0770   -0.8960 hn        1 MOL      0.302786
     40 H20         4.5260    6.5100   -0.2050 hn        1 MOL      0.302786
     41 N4         -3.7290    4.0440   -1.0890 n         1 MOL     -0.379824
     42 C13        -4.6440    4.0100   -2.2320 c3        1 MOL      0.074985
     43 C14        -5.9520    3.2300   -1.9860 c         1 MOL      0.421483
     44 O6         -6.9290    3.3570   -2.7710 o         1 MOL     -0.542757
     45 C15        -3.7800    3.4860   -3.4260 c3        1 MOL     -0.093525
     46 C16        -2.9920    2.2100   -3.1990 c         1 MOL      0.751643
     47 O7         -3.5840    1.1890   -2.6810 o         1 MOL     -0.768200
     48 O8         -1.7450    2.2120   -3.2840 o         1 MOL     -0.768200
     49 H21        -3.5200    3.1960   -0.5910 hn        1 MOL      0.229102
     50 H22        -4.9660    5.0110   -2.5510 h1        1 MOL      0.094535
     51 H23        -3.1020    4.2850   -3.7120 hc        1 MOL      0.021589
     52 H24        -4.4860    3.3050   -4.2340 hc        1 MOL      0.021589
     53 N5         -6.0240    2.4310   -0.9200 n         1 MOL     -0.231956
     54 C17        -7.3150    1.9420   -0.4050 c3        1 MOL     -0.247410
     55 C18        -7.7160    0.5330   -0.9030 c         1 MOL      0.522584
     56 O9         -8.8390    0.0680   -0.6520 o         1 MOL     -0.592456
     57 H25        -5.2050    2.2660   -0.3450 hn        1 MOL      0.245638
     58 H26        -8.0760    2.6570   -0.7150 h1        1 MOL      0.137779
     59 H27        -7.3150    1.9760    0.6830 h1        1 MOL      0.137779
     60 N6         -6.9320   -0.1830   -1.6930 n         1 MOL     -0.244121
     61 C19        -7.1490   -1.5400   -2.1720 c3        1 MOL     -0.036094
     62 C20        -7.1460   -2.5210   -0.9590 c         1 MOL      0.436392
     63 O10        -7.4150   -3.6790   -1.1540 o         1 MOL     -0.502982
     64 C21        -6.1600   -1.8260   -3.2800 c3        1 MOL     -0.273268
     65 C22        -4.7590   -2.1010   -2.7920 c         1 MOL      0.885745
     66 O11        -4.1790   -1.5880   -1.8490 o         1 MOL     -0.705692
     67 O12        -4.0420   -2.8080   -3.5290 o         1 MOL     -0.705692
     68 H28        -6.0520    0.2610   -1.9160 hn        1 MOL      0.232796
     69 H29        -8.1620   -1.5970   -2.5680 h1        1 MOL      0.105589
     70 H30        -6.0940   -0.9640   -3.9440 hc        1 MOL      0.094450
     71 H31        -6.5610   -2.7010   -3.7950 hc        1 MOL      0.094450
     72 N7         -6.6990   -2.0920    0.2350 n         1 MOL     -0.194186
     73 C23        -6.6440   -3.0170    1.3720 c3        1 MOL     -0.300332
     74 C24        -5.4150   -3.8470    1.4890 c         1 MOL      0.588317
     75 O13        -5.5390   -4.9060    2.0170 o         1 MOL     -0.568381
     76 H32        -6.3110   -1.1700    0.3620 hn        1 MOL      0.266164
     77 H33        -7.4550   -3.7460    1.3560 h1        1 MOL      0.134451
     78 H34        -6.7200   -2.3770    2.2470 h1        1 MOL      0.134451
     79 N8         -4.3390   -3.4970    0.7600 n         1 MOL     -0.338398
     80 C25        -3.0890   -4.2570    0.6920 c3        1 MOL     -0.039037
     81 C26        -1.8420   -3.3020    0.8280 c         1 MOL      0.464865
     82 O14        -1.7710   -2.2390    0.2390 o         1 MOL     -0.652432
     83 C27        -2.9790   -5.1270   -0.5730 c3        1 MOL      0.361572
     84 C28        -1.8780   -6.1040   -0.6070 c3        1 MOL     -0.500914
     85 O15        -4.1440   -5.8630   -0.7040 oh        1 MOL     -0.560623
     86 H35        -4.4700   -2.6300    0.2510 hn        1 MOL      0.255632
     87 H36        -3.0890   -5.0380    1.4470 h1        1 MOL      0.044178
     88 H37        -2.9540   -4.4590   -1.4410 h1        1 MOL      0.093519
     89 H38        -4.0400   -6.5220   -0.0080 ho        1 MOL      0.386862
     90 H39        -0.8900   -5.6510   -0.6250 hc        1 MOL      0.112115
     91 H40        -2.1040   -6.7650    0.2300 hc        1 MOL      0.112115
     92 H41        -1.9230   -6.5910   -1.5780 hc        1 MOL      0.112115
     93 N9         -0.8980   -3.6070    1.7080 n         1 MOL     -0.311064
     94 C29         0.3250   -2.8100    1.9340 c3        1 MOL      0.001105
     95 C30         1.4850   -3.4170    1.1780 c         1 MOL      0.358968
     96 O16         1.8290   -4.5900    1.3370 o         1 MOL     -0.552135
     97 C31         0.6080   -2.8810    3.4310 c3        1 MOL      0.076314
     98 C32        -0.5510   -2.3710    4.2640 c3        1 MOL     -0.094509
     99 C33         1.9160   -2.1600    3.8130 c3        1 MOL     -0.329796
    100 C34        -0.9970   -0.9680    3.8600 c3        1 MOL     -0.070452
    101 H42        -1.0110   -4.5060    2.1520 hn        1 MOL      0.264757
    102 H43         0.2160   -1.7840    1.5920 h1        1 MOL      0.075610
    103 H44         0.7010   -3.9220    3.7230 hc        1 MOL      0.029211
    104 H45        -0.2750   -2.3410    5.3140 hc        1 MOL      0.022455
    105 H46        -1.3920   -3.0650    4.1510 hc        1 MOL      0.022455
    106 H47         2.7540   -2.7410    3.4390 hc        1 MOL      0.084858
    107 H48         1.9400   -1.1430    3.4030 hc        1 MOL      0.084858
    108 H49         1.9600   -2.0960    4.8990 hc        1 MOL      0.084858
    109 H50        -0.2110   -0.2370    4.0670 hc        1 MOL      0.054510
    110 H51        -1.2620   -1.0630    2.8010 hc        1 MOL      0.054510
    111 H52        -1.9140   -0.7360    4.3850 hc        1 MOL      0.054510
    112 N10         2.0580   -2.6540    0.2880 n         1 MOL     -0.019103
    113 C35         3.2400   -2.8610   -0.5600 c3        1 MOL     -0.119392
    114 C36         4.6040   -2.4360    0.1160 c         1 MOL      0.414173
    115 O17         4.6140   -1.5570    0.9590 o         1 MOL     -0.283432
    116 C37         3.1150   -2.1340   -1.9070 c3        1 MOL      0.328738
    117 C38         2.0240   -2.6750   -2.8350 c3        1 MOL     -0.421836
    118 O18         3.0340   -0.7700   -1.8100 oh        1 MOL     -0.588161
    119 H53         1.6500   -1.7350    0.2280 hn        1 MOL      0.172368
    120 H54         3.1490   -3.9440   -0.6850 h1        1 MOL      0.074620
    121 H55         4.0410   -2.3740   -2.4280 h1        1 MOL      0.001208
    122 H56         2.1780   -0.7050   -1.3970 ho        1 MOL      0.322989
    123 H57         1.7710   -2.1270   -3.7370 hc        1 MOL      0.114682
    124 H58         2.3610   -3.6550   -3.1540 hc        1 MOL      0.114682
    125 H59         1.1240   -2.6560   -2.2100 hc        1 MOL      0.114682
    126 N11         5.7740   -2.9310   -0.4430 n         1 MOL     -0.435577
    127 C39         7.1260   -2.6360    0.1310 c3        1 MOL      0.004186
    128 C40         7.3170   -1.1610    0.4190 c         1 MOL      0.371046
    129 O19         8.1070   -0.8510    1.2980 o         1 MOL     -0.551104
    130 C41         8.1970   -3.0760   -0.8220 c3        1 MOL      0.226669
    131 C42         8.2800   -4.5810   -1.0900 c3        1 MOL     -0.621808
    132 O20         7.8790   -2.5400   -2.1180 oh        1 MOL     -0.634925
    133 H60         5.7850   -3.5410   -1.2540 hn        1 MOL      0.289934
    134 H61         7.2330   -3.1600    1.0760 h1        1 MOL      0.129235
    135 H62         9.1290   -2.6550   -0.4460 h1        1 MOL      0.075325
    136 H63         8.5480   -2.9300   -2.6870 ho        1 MOL      0.410432
    137 H64         7.4390   -4.9050   -1.6930 hc        1 MOL      0.186796
    138 H65         9.2490   -4.7320   -1.5740 hc        1 MOL      0.186796
    139 H66         8.4230   -5.0870   -0.1310 hc        1 MOL      0.186796
    140 N12         6.7360   -0.2510   -0.3190 n         1 MOL      0.001925
    141 C43         6.9330    1.1640   -0.3520 c3        1 MOL     -0.042506
    142 C44         5.9060    1.9940    0.5070 c         1 MOL      0.449540
    143 O21         5.8990    3.2270    0.5210 o         1 MOL     -0.571384
    144 C45         7.1250    1.6400   -1.7820 c3        1 MOL     -0.143214
    145 C46         8.4350    1.1100   -2.4860 c3        1 MOL     -0.013420
    146 C47         8.3070    1.2430   -3.9450 c3        1 MOL     -0.016935
    147 C48         9.5620    0.8970   -4.6560 c3        1 MOL      0.076959
    148 N13         9.5020    1.2240   -6.0440 n4        1 MOL     -0.203978
    149 H67         6.2760   -0.7220   -1.0870 hn        1 MOL      0.223296
    150 H68         7.9100    1.3050    0.1160 h1        1 MOL      0.097000
    151 H69         7.1950    2.7290   -1.7620 hc        1 MOL      0.049390
    152 H70         6.2400    1.2870   -2.3010 hc        1 MOL      0.049390
    153 H71         8.5810    0.0780   -2.1900 hc        1 MOL      0.031324
    154 H72         9.2640    1.7530   -2.1910 hc        1 MOL      0.031324
    155 H73         7.9570    2.2410   -4.2130 hc        1 MOL      0.029589
    156 H74         7.4900    0.6180   -4.2930 hc        1 MOL      0.029589
    157 H75         9.8360   -0.1380   -4.4490 hx        1 MOL      0.049078
    158 H76        10.3990    1.4090   -4.1950 hx        1 MOL      0.049078
    159 H77        10.4400    1.3660   -6.3940 hn        1 MOL      0.226814
    160 H78         9.1030    0.4620   -6.5790 hn        1 MOL      0.226814
    161 H79         8.8910    2.0040   -6.2440 hn        1 MOL      0.226814
    162 N14         4.9440    1.2350    1.0590 n         1 MOL     -0.138208
    163 C49         3.9970    1.5440    2.1200 c3        1 MOL     -0.013687
    164 C50         4.4480    0.9180    3.5310 c         1 MOL      0.398119
    165 O22         4.2010    1.4970    4.5770 o         1 MOL     -0.505759
    166 C51         2.6100    0.9100    1.7660 c3        1 MOL     -0.080170
    167 C52         1.8710    1.6570    0.7190 c3        1 MOL      0.094105
    168 C53         0.6440    0.9000    0.1350 c         1 MOL      0.534272
    169 O23         0.6770   -0.2700   -0.3010 o         1 MOL     -0.616456
    170 O24        -0.3960    1.5380    0.0130 o         1 MOL     -0.616456
    171 H80         5.0240    0.2510    0.8240 hn        1 MOL     -0.078099
    172 H81         3.9420    2.6280    2.2510 h1        1 MOL      0.069905
    173 H82         2.0140    1.0750    2.6680 hc        1 MOL      0.097930
    174 H83         2.5940   -0.1490    1.5270 hc        1 MOL      0.097930
    175 H84         2.4770    1.9990   -0.1240 hc        1 MOL     -0.022624
    176 H85         1.4750    2.5620    1.1770 hc        1 MOL     -0.022624
    177 N15         5.0900   -0.2690    3.5930 n         1 MOL     -0.210724
    178 C54         5.5550   -1.0740    4.7900 c3        1 MOL     -0.144781
    179 H86         5.0630   -2.0460    4.7870 h1        1 MOL      0.091197
    180 H87         6.6350   -1.2130    4.7370 h1        1 MOL      0.091197
    181 H88         5.3000   -0.5410    5.7070 h1        1 MOL      0.091197
    182 H89         5.1750   -0.7400    2.6950 hn        1 MOL      0.179669
    183 Ca1        -1.7880   -0.1020   -1.3820 Ca        1 MOL      1.783021
    184 O25        -1.5170   -2.5390   -2.5670 oh        1 MOL     -0.843665
    185 H90        -2.3820   -2.9230   -2.6910 ho        1 MOL      0.402181
    186 H91        -0.9150   -3.1380   -2.9980 ho        1 MOL      0.402181
    187 O26         0.0110    0.2290   -3.5870 oh        1 MOL     -0.843665
    188 H92        -0.0420    1.1810   -3.5910 ho        1 MOL      0.402181
    189 H93         0.6300    0.0320   -4.2940 ho        1 MOL      0.402181
@<TRIPOS>BOND
     1    1    2 1   
     2    1    4 1   
     3    1    5 1   
     4    1    6 1   
     5    2    3 2   
     6    2    7 1   
     7    7    8 1   
     8    7   15 1   
     9    8    9 1   
    10    8   11 1   
    11    8   16 1   
    12    9   10 2   
    13    9   19 1   
    14   11   12 1   
    15   11   17 1   
    16   11   18 1   
    17   12   13 1   
    18   12   14 1   
    19   19   20 1   
    20   19   28 1   
    21   20   21 1   
    22   20   23 1   
    23   20   29 1   
    24   21   22 2   
    25   21   41 1   
    26   23   24 1   
    27   23   30 1   
    28   23   31 1   
    29   24   25 1   
    30   24   32 1   
    31   24   33 1   
    32   25   26 1   
    33   25   34 1   
    34   25   35 1   
    35   26   27 1   
    36   26   36 1   
    37   26   37 1   
    38   27   38 1   
    39   27   39 1   
    40   27   40 1   
    41   41   42 1   
    42   41   49 1   
    43   42   43 1   
    44   42   45 1   
    45   42   50 1   
    46   43   44 2   
    47   43   53 1   
    48   45   46 1   
    49   45   51 1   
    50   45   52 1   
    51   46   47 1   
    52   46   48 1   
    53   53   54 1   
    54   53   57 1   
    55   54   55 1   
    56   54   58 1   
    57   54   59 1   
    58   55   56 2   
    59   55   60 1   
    60   60   61 1   
    61   60   68 1   
    62   61   62 1   
    63   61   64 1   
    64   61   69 1   
    65   62   63 2   
    66   62   72 1   
    67   64   65 1   
    68   64   70 1   
    69   64   71 1   
    70   65   66 1   
    71   65   67 1   
    72   72   73 1   
    73   72   76 1   
    74   73   74 1   
    75   73   77 1   
    76   73   78 1   
    77   74   75 2   
    78   74   79 1   
    79   79   80 1   
    80   79   86 1   
    81   80   81 1   
    82   80   83 1   
    83   80   87 1   
    84   81   82 2   
    85   81   93 1   
    86   83   84 1   
    87   83   85 1   
    88   83   88 1   
    89   84   90 1   
    90   84   91 1   
    91   84   92 1   
    92   85   89 1   
    93   93   94 1   
    94   93  101 1   
    95   94   95 1   
    96   94   97 1   
    97   94  102 1   
    98   95   96 2   
    99   95  112 1   
   100   97   98 1   
   101   97   99 1   
   102   97  103 1   
   103   98  100 1   
   104   98  104 1   
   105   98  105 1   
   106   99  106 1   
   107   99  107 1   
   108   99  108 1   
   109  100  109 1   
   110  100  110 1   
   111  100  111 1   
   112  112  113 1   
   113  112  119 1   
   114  113  114 1   
   115  113  116 1   
   116  113  120 1   
   117  114  115 2   
   118  114  126 1   
   119  116  117 1   
   120  116  118 1   
   121  116  121 1   
   122  117  123 1   
   123  117  124 1   
   124  117  125 1   
   125  118  122 1   
   126  126  127 1   
   127  126  133 1   
   128  127  128 1   
   129  127  130 1   
   130  127  134 1   
   131  128  129 2   
   132  128  140 1   
   133  130  131 1   
   134  130  132 1   
   135  130  135 1   
   136  131  137 1   
   137  131  138 1   
   138  131  139 1   
   139  132  136 1   
   140  140  141 1   
   141  140  149 1   
   142  141  142 1   
   143  141  144 1   
   144  141  150 1   
   145  142  143 2   
   146  142  162 1   
   147  144  145 1   
   148  144  151 1   
   149  144  152 1   
   150  145  146 1   
   151  145  153 1   
   152  145  154 1   
   153  146  147 1   
   154  146  155 1   
   155  146  156 1   
   156  147  148 1   
   157  147  157 1   
   158  147  158 1   
   159  148  159 1   
   160  148  160 1   
   161  148  161 1   
   162  162  163 1   
   163  162  171 1   
   164  163  164 1   
   165  163  166 1   
   166  163  172 1   
   167  164  165 2   
   168  164  177 1   
   169  166  167 1   
   170  166  173 1   
   171  166  174 1   
   172  167  168 1   
   173  167  175 1   
   174  167  176 1   
   175  168  169 1   
   176  168  170 1   
   177  177  178 1   
   178  177  182 1   
   179  178  179 1   
   180  178  180 1   
   181  178  181 1   
   182  184  185 1   
   183  184  186 1   
   184  187  188 1   
   185  187  189 1   
@<TRIPOS>SUBSTRUCTURE
     1 MOL         1 TEMP              0 ****  ****    0 ROOT
