@<TRIPOS>MOLECULE
MOL
  189   185     1     0     0
SMALL
resp


@<TRIPOS>ATOM
      1 C1          0.2100    0.8520    6.0550 c3        1 MOL     -0.424513
      2 C2         -0.3650    1.0630    4.6450 c         1 MOL      0.660130
      3 O1          0.3490    1.6380    3.7690 o         1 MOL     -0.622611
      4 H1          0.7370    1.7520    6.3700 hc        1 MOL      0.111625
      5 H2         -0.6020    0.6450    6.7530 hc        1 MOL      0.111625
      6 H3          0.9030    0.0100    6.0440 hc        1 MOL      0.111625
      7 N1         -1.5950    0.6470    4.3780 n         1 MOL     -0.449765
      8 C3         -2.2720    0.8990    3.1180 c3        1 MOL      0.021121
      9 C4         -2.6360    2.3890    2.8020 c         1 MOL      0.503374
     10 O2         -3.6770    2.8950    3.2080 o         1 MOL     -0.520094
     11 C5         -3.5060   -0.1040    3.0310 c3        1 MOL     -0.167562
     12 C6         -4.3070   -0.0430    1.7020 c         1 MOL      0.773124
     13 O3         -5.5320   -0.3420    1.7020 o         1 MOL     -0.654283
     14 O4         -3.7020    0.3980    0.6810 o         1 MOL     -0.654283
     15 H4         -2.0860    0.2920    5.1790 hn        1 MOL      0.303838
     16 H5         -1.5620    0.5960    2.3470 h1        1 MOL      0.085411
     17 H6         -4.1510   -0.0040    3.9030 hc        1 MOL      0.027773
     18 H7         -3.1290   -1.1240    3.0290 hc        1 MOL      0.027773
     19 N2         -1.7140    3.0340    2.1150 n         1 MOL     -0.132035
     20 C7         -1.5320    4.4900    1.9150 c3        1 MOL     -0.356431
     21 C8         -2.5220    5.1250    0.9000 c         1 MOL      0.581809
     22 O5         -2.8020    6.3290    0.9810 o         1 MOL     -0.617574
     23 C9         -0.0950    4.6830    1.3310 c3        1 MOL      0.157805
     24 C10         0.5050    6.0300    1.5000 c3        1 MOL      0.164482
     25 C11         1.8550    6.2030    0.7600 c3        1 MOL      0.033911
     26 C12         2.7740    7.2150    1.4530 c3        1 MOL      0.003887
     27 N3          2.1270    8.4940    1.7450 n4        1 MOL     -0.391912
     28 H8         -1.0290    2.4920    1.6030 hn        1 MOL      0.170478
     29 H9         -1.6110    4.9830    2.8820 h1        1 MOL      0.137206
     30 H10        -0.1190    4.5770    0.2440 hc        1 MOL      0.013811
     31 H11         0.5500    3.9260    1.7720 hc        1 MOL      0.013811
     32 H12         0.6070    6.2410    2.5580 hc        1 MOL     -0.048596
     33 H13        -0.1720    6.7540    1.0570 hc        1 MOL     -0.048596
     34 H14         1.6460    6.5890   -0.2410 hc        1 MOL     -0.015002
     35 H15         2.4040    5.2690    0.7800 hc        1 MOL     -0.015002
     36 H16         3.5530    7.4340    0.7300 hx        1 MOL      0.083632
     37 H17         3.1150    6.8270    2.4120 hx        1 MOL      0.083632
     38 H18         1.5410    8.4140    2.5550 hn        1 MOL      0.339443
     39 H19         2.8240    9.2120    1.8630 hn        1 MOL      0.339443
     40 H20         1.5690    8.7070    0.9170 hn        1 MOL      0.339443
     41 N4         -2.8910    4.3970   -0.1410 n         1 MOL     -0.114731
     42 C13        -3.6650    4.8500   -1.3210 c3        1 MOL     -0.137665
     43 C14        -4.9100    3.9770   -1.5080 c         1 MOL      0.417095
     44 O6         -5.5650    4.1220   -2.5390 o         1 MOL     -0.477753
     45 C15        -2.7020    4.6870   -2.5230 c3        1 MOL     -0.113851
     46 C16        -2.0830    3.3150   -2.7260 c         1 MOL      0.810997
     47 O7         -2.3020    2.3780   -1.9230 o         1 MOL     -0.744479
     48 O8         -1.3200    3.1160   -3.6980 o         1 MOL     -0.744479
     49 H21        -2.5250    3.4670   -0.2940 hn        1 MOL      0.115460
     50 H22        -3.9870    5.8920   -1.3000 h1        1 MOL      0.120306
     51 H23        -1.9410    5.4630   -2.4360 hc        1 MOL      0.028526
     52 H24        -3.2120    4.9230   -3.4490 hc        1 MOL      0.028526
     53 N5         -5.2180    3.1630   -0.4820 n         1 MOL     -0.026092
     54 C17        -6.4810    2.5120   -0.2500 c3        1 MOL     -0.382895
     55 C18        -7.0140    1.5260   -1.2550 c         1 MOL      0.637800
     56 O9         -7.7980    1.8700   -2.1730 o         1 MOL     -0.559220
     57 H25        -4.4740    3.1080    0.1960 hn        1 MOL      0.070522
     58 H26        -7.2400    3.2930   -0.2540 h1        1 MOL      0.133191
     59 H27        -6.3940    2.1400    0.7670 h1        1 MOL      0.133191
     60 N6         -6.6060    0.2690   -1.1590 n         1 MOL     -0.350153
     61 C19        -7.0230   -0.8050   -2.0410 c3        1 MOL      0.186946
     62 C20        -7.2630   -2.0850   -1.1470 c         1 MOL      0.284164
     63 O10        -7.9000   -3.0370   -1.5920 o         1 MOL     -0.531071
     64 C21        -6.0030   -1.2070   -3.1810 c3        1 MOL      0.014110
     65 C22        -4.5950   -1.0900   -2.6590 c         1 MOL      0.498408
     66 O11        -3.9670   -0.0660   -2.8540 o         1 MOL     -0.618300
     67 O12        -4.2350   -1.9240   -1.8540 o         1 MOL     -0.618300
     68 H28        -5.9270    0.0580   -0.4440 hn        1 MOL      0.109734
     69 H29        -7.9560   -0.5220   -2.5130 h1        1 MOL      0.054780
     70 H30        -6.2420   -0.5640   -4.0300 hc        1 MOL      0.000896
     71 H31        -6.2760   -2.2200   -3.4880 hc        1 MOL      0.000896
     72 N7         -6.8880   -2.1510    0.1190 n         1 MOL     -0.127909
     73 C23        -6.9310   -3.3530    0.9610 c3        1 MOL     -0.109184
     74 C24        -5.7140   -4.2340    0.9040 c         1 MOL      0.536199
     75 O13        -5.7890   -5.3340    1.4310 o         1 MOL     -0.570156
     76 H32        -6.3960   -1.3390    0.4620 hn        1 MOL      0.157332
     77 H33        -7.7790   -3.9580    0.6470 h1        1 MOL      0.088519
     78 H34        -7.0820   -3.1400    2.0250 h1        1 MOL      0.088519
     79 N8         -4.5770   -3.7530    0.3120 n         1 MOL     -0.261248
     80 C25        -3.3100   -4.5130    0.2330 c3        1 MOL     -0.157804
     81 C26        -2.0750   -3.6510    0.4460 c         1 MOL      0.685694
     82 O14        -2.1350   -2.4510    0.1740 o         1 MOL     -0.709738
     83 C27        -3.1660   -5.1300   -1.1270 c3        1 MOL      0.443921
     84 C28        -4.4160   -5.8420   -1.6630 c3        1 MOL     -0.366385
     85 O15        -2.8300   -4.2290   -2.1300 oh        1 MOL     -0.628002
     86 H35        -4.6240   -2.8630   -0.1640 hn        1 MOL      0.197628
     87 H36        -3.2860   -5.3260    0.9520 h1        1 MOL      0.077340
     88 H37        -2.4680   -5.9490   -0.9900 h1        1 MOL     -0.024305
     89 H38        -3.3990   -3.4720   -1.9550 ho        1 MOL      0.408374
     90 H39        -5.2430   -5.1940   -1.9430 hc        1 MOL      0.087178
     91 H40        -4.1150   -6.2510   -2.6240 hc        1 MOL      0.087178
     92 H41        -4.7410   -6.6560   -1.0110 hc        1 MOL      0.087178
     93 N9         -1.0050   -4.2110    0.9490 n         1 MOL     -0.610662
     94 C29         0.1960   -3.4740    1.3500 c3        1 MOL      0.195256
     95 C30         1.3070   -3.9550    0.4070 c         1 MOL      0.376680
     96 O16         1.8990   -5.0110    0.5310 o         1 MOL     -0.538744
     97 C31         0.6000   -3.7150    2.8540 c3        1 MOL      0.326695
     98 C32        -0.5230   -3.4030    3.7570 c3        1 MOL      0.240517
     99 C33         1.9690   -3.0480    3.2560 c3        1 MOL     -0.402109
    100 C34        -0.2460   -3.7840    5.2340 c3        1 MOL     -0.146554
    101 H42        -1.0540   -5.1660    1.2810 hn        1 MOL      0.315988
    102 H43         0.0570   -2.4180    1.1250 h1        1 MOL      0.042034
    103 H44         0.7340   -4.7990    2.8580 hc        1 MOL     -0.080128
    104 H45        -1.4070   -3.9430    3.4220 hc        1 MOL     -0.085999
    105 H46        -0.6470   -2.3200    3.6520 hc        1 MOL     -0.085999
    106 H47         1.8570   -1.9660    3.2820 hc        1 MOL      0.080674
    107 H48         2.3460   -3.5680    4.1280 hc        1 MOL      0.080674
    108 H49         2.6890   -3.3340    2.4960 hc        1 MOL      0.080674
    109 H50        -0.2830   -4.8650    5.3460 hc        1 MOL      0.018561
    110 H51         0.6920   -3.3880    5.6330 hc        1 MOL      0.018561
    111 H52        -0.9870   -3.3270    5.8960 hc        1 MOL      0.018561
    112 N10         1.9070   -3.0450   -0.3980 n         1 MOL     -0.157222
    113 C35         3.1700   -3.1880   -1.1770 c3        1 MOL     -0.070757
    114 C36         4.4450   -3.2820   -0.3330 c         1 MOL      0.391065
    115 O17         4.4660   -2.8700    0.7990 o         1 MOL     -0.374653
    116 C37         3.3350   -2.1340   -2.2510 c3        1 MOL      0.033243
    117 C38         2.2450   -2.1450   -3.3420 c3        1 MOL     -0.219279
    118 O18         3.3690   -0.8560   -1.6500 oh        1 MOL     -0.442788
    119 H53         1.5280   -2.1170   -0.4350 hn        1 MOL      0.231095
    120 H54         3.2170   -4.0990   -1.7770 h1        1 MOL      0.065042
    121 H55         4.3300   -2.3330   -2.6500 h1        1 MOL      0.101653
    122 H56         2.4920   -0.6530   -1.3180 ho        1 MOL      0.323748
    123 H57         1.2890   -1.8540   -2.9000 hc        1 MOL      0.077270
    124 H58         2.5930   -1.4640   -4.1210 hc        1 MOL      0.077270
    125 H59         2.2660   -3.0480   -3.9490 hc        1 MOL      0.077270
    126 N11         5.5490   -3.6490   -0.9670 n         1 MOL     -0.212039
    127 C39         6.9270   -3.4140   -0.5450 c3        1 MOL     -0.320946
    128 C40         7.2590   -1.9530   -0.3170 c         1 MOL      0.466283
    129 O19         7.7920   -1.5530    0.7320 o         1 MOL     -0.466761
    130 C41         7.9920   -4.1510   -1.3710 c3        1 MOL      0.428329
    131 C42         7.8020   -5.6540   -1.5150 c3        1 MOL     -0.487680
    132 O20         8.0160   -3.7680   -2.6850 oh        1 MOL     -0.685476
    133 H60         5.3810   -4.0880   -1.8570 hn        1 MOL      0.238421
    134 H61         6.9690   -3.8940    0.4330 h1        1 MOL      0.153213
    135 H62         8.9450   -3.9400   -0.8930 h1        1 MOL      0.038424
    136 H63         8.3560   -4.4850   -3.2190 ho        1 MOL      0.434715
    137 H64         8.7480   -6.0960   -1.8050 hc        1 MOL      0.131663
    138 H65         7.5510   -6.0380   -0.5300 hc        1 MOL      0.131663
    139 H66         7.0450   -5.8620   -2.2720 hc        1 MOL      0.131663
    140 N12         6.9110   -1.0920   -1.3130 n         1 MOL     -0.221137
    141 C43         7.0830    0.3780   -1.2580 c3        1 MOL     -0.152770
    142 C44         6.3680    0.9780   -0.0320 c         1 MOL      0.505884
    143 O21         7.0360    1.8040    0.6480 o         1 MOL     -0.521311
    144 C45         6.6780    1.1100   -2.5930 c3        1 MOL      0.152398
    145 C46         7.0350    2.6430   -2.5550 c3        1 MOL     -0.129276
    146 C47         6.6710    3.3280   -3.8720 c3        1 MOL      0.044144
    147 C48         5.8130    4.5820   -3.9120 c3        1 MOL      0.091881
    148 N13         6.3030    5.6680   -3.0320 n4        1 MOL     -0.459235
    149 H67         6.5030   -1.4020   -2.1850 hn        1 MOL      0.221257
    150 H68         8.1090    0.6660   -1.0300 h1        1 MOL      0.096859
    151 H69         5.6010    0.9820   -2.6710 hc        1 MOL     -0.013931
    152 H70         7.1960    0.6580   -3.4430 hc        1 MOL     -0.013931
    153 H71         8.1140    2.6590   -2.4430 hc        1 MOL      0.024628
    154 H72         6.5580    3.0570   -1.6720 hc        1 MOL      0.024628
    155 H73         6.0620    2.6620   -4.4740 hc        1 MOL      0.036655
    156 H74         7.5960    3.5420   -4.4260 hc        1 MOL      0.036655
    157 H75         4.7680    4.3700   -3.7140 hx        1 MOL      0.073487
    158 H76         5.8910    4.8740   -4.9570 hx        1 MOL      0.073487
    159 H77         7.2990    5.6430   -2.8540 hn        1 MOL      0.346821
    160 H78         6.1480    6.5940   -3.4090 hn        1 MOL      0.346821
    161 H79         5.8600    5.6170   -2.1210 hn        1 MOL      0.346821
    162 N14         5.0950    0.5550    0.2430 n         1 MOL      0.017363
    163 C49         4.3250    1.0490    1.3810 c3        1 MOL     -0.561790
    164 C50         4.9550    0.8660    2.6970 c         1 MOL      0.540074
    165 O22         5.3520    1.8030    3.3770 o         1 MOL     -0.538177
    166 C51         2.8850    0.4770    1.3010 c3        1 MOL      0.590720
    167 C52         2.0470    1.2350    0.2230 c3        1 MOL     -0.270536
    168 C53         0.7050    0.5530    0.0210 c         1 MOL      0.669740
    169 O23         0.7040   -0.5640   -0.5470 o         1 MOL     -0.693816
    170 O24        -0.3510    1.1150    0.3170 o         1 MOL     -0.693816
    171 H80         4.6770   -0.0980   -0.4070 hn        1 MOL      0.009344
    172 H81         4.1490    2.1210    1.2860 h1        1 MOL      0.137250
    173 H82         2.4050    0.5850    2.2750 hc        1 MOL     -0.086067
    174 H83         2.8870   -0.5880    1.1020 hc        1 MOL     -0.086067
    175 H84         2.5470    1.3320   -0.7390 hc        1 MOL      0.029264
    176 H85         1.8230    2.2150    0.6460 hc        1 MOL      0.029264
    177 N15         5.1390   -0.4300    3.0240 n         1 MOL     -0.143740
    178 C54         5.8380   -0.8740    4.2130 c3        1 MOL     -0.139779
    179 H86         6.2950   -0.0160    4.7060 h1        1 MOL      0.072488
    180 H87         5.1320   -1.3500    4.8930 h1        1 MOL      0.072488
    181 H88         6.6120   -1.5880    3.9340 h1        1 MOL      0.072488
    182 H89         4.7290   -1.1220    2.4180 hn        1 MOL      0.170175
    183 Ca1        -2.0690   -0.1600   -1.1840 Ca        1 MOL      1.735041
    184 O25        -1.3490   -2.0420   -3.2840 oh        1 MOL     -0.803615
    185 H90        -2.1150   -1.7990   -3.8000 ho        1 MOL      0.381633
    186 H91        -1.2890   -2.9880   -3.3880 ho        1 MOL      0.381633
    187 O26        -0.2420    0.7030   -3.2820 oh        1 MOL     -0.803615
    188 H92         0.4760    0.6000   -3.9090 ho        1 MOL      0.381633
    189 H93        -0.5350    1.6020   -3.3900 ho        1 MOL      0.381633
@<TRIPOS>BOND
     1    1    2 1   
     2    1    4 1   
     3    1    5 1   
     4    1    6 1   
     5    2    3 2   
     6    2    7 1   
     7    7    8 1   
     8    7   15 1   
     9    8    9 1   
    10    8   11 1   
    11    8   16 1   
    12    9   10 2   
    13    9   19 1   
    14   11   12 1   
    15   11   17 1   
    16   11   18 1   
    17   12   13 1   
    18   12   14 1   
    19   19   20 1   
    20   19   28 1   
    21   20   21 1   
    22   20   23 1   
    23   20   29 1   
    24   21   22 2   
    25   21   41 1   
    26   23   24 1   
    27   23   30 1   
    28   23   31 1   
    29   24   25 1   
    30   24   32 1   
    31   24   33 1   
    32   25   26 1   
    33   25   34 1   
    34   25   35 1   
    35   26   27 1   
    36   26   36 1   
    37   26   37 1   
    38   27   38 1   
    39   27   39 1   
    40   27   40 1   
    41   41   42 1   
    42   41   49 1   
    43   42   43 1   
    44   42   45 1   
    45   42   50 1   
    46   43   44 2   
    47   43   53 1   
    48   45   46 1   
    49   45   51 1   
    50   45   52 1   
    51   46   47 1   
    52   46   48 1   
    53   53   54 1   
    54   53   57 1   
    55   54   55 1   
    56   54   58 1   
    57   54   59 1   
    58   55   56 2   
    59   55   60 1   
    60   60   61 1   
    61   60   68 1   
    62   61   62 1   
    63   61   64 1   
    64   61   69 1   
    65   62   63 2   
    66   62   72 1   
    67   64   65 1   
    68   64   70 1   
    69   64   71 1   
    70   65   66 1   
    71   65   67 1   
    72   72   73 1   
    73   72   76 1   
    74   73   74 1   
    75   73   77 1   
    76   73   78 1   
    77   74   75 2   
    78   74   79 1   
    79   79   80 1   
    80   79   86 1   
    81   80   81 1   
    82   80   83 1   
    83   80   87 1   
    84   81   82 2   
    85   81   93 1   
    86   83   84 1   
    87   83   85 1   
    88   83   88 1   
    89   84   90 1   
    90   84   91 1   
    91   84   92 1   
    92   85   89 1   
    93   93   94 1   
    94   93  101 1   
    95   94   95 1   
    96   94   97 1   
    97   94  102 1   
    98   95   96 2   
    99   95  112 1   
   100   97   98 1   
   101   97   99 1   
   102   97  103 1   
   103   98  100 1   
   104   98  104 1   
   105   98  105 1   
   106   99  106 1   
   107   99  107 1   
   108   99  108 1   
   109  100  109 1   
   110  100  110 1   
   111  100  111 1   
   112  112  113 1   
   113  112  119 1   
   114  113  114 1   
   115  113  116 1   
   116  113  120 1   
   117  114  115 2   
   118  114  126 1   
   119  116  117 1   
   120  116  118 1   
   121  116  121 1   
   122  117  123 1   
   123  117  124 1   
   124  117  125 1   
   125  118  122 1   
   126  126  127 1   
   127  126  133 1   
   128  127  128 1   
   129  127  130 1   
   130  127  134 1   
   131  128  129 2   
   132  128  140 1   
   133  130  131 1   
   134  130  132 1   
   135  130  135 1   
   136  131  137 1   
   137  131  138 1   
   138  131  139 1   
   139  132  136 1   
   140  140  141 1   
   141  140  149 1   
   142  141  142 1   
   143  141  144 1   
   144  141  150 1   
   145  142  143 2   
   146  142  162 1   
   147  144  145 1   
   148  144  151 1   
   149  144  152 1   
   150  145  146 1   
   151  145  153 1   
   152  145  154 1   
   153  146  147 1   
   154  146  155 1   
   155  146  156 1   
   156  147  148 1   
   157  147  157 1   
   158  147  158 1   
   159  148  159 1   
   160  148  160 1   
   161  148  161 1   
   162  162  163 1   
   163  162  171 1   
   164  163  164 1   
   165  163  166 1   
   166  163  172 1   
   167  164  165 2   
   168  164  177 1   
   169  166  167 1   
   170  166  173 1   
   171  166  174 1   
   172  167  168 1   
   173  167  175 1   
   174  167  176 1   
   175  168  169 1   
   176  168  170 1   
   177  177  178 1   
   178  177  182 1   
   179  178  179 1   
   180  178  180 1   
   181  178  181 1   
   182  184  185 1   
   183  184  186 1   
   184  187  188 1   
   185  187  189 1   
@<TRIPOS>SUBSTRUCTURE
     1 MOL         1 TEMP              0 ****  ****    0 ROOT
