@<TRIPOS>MOLECULE
MOL
  179   176     1     0     0
SMALL
resp


@<TRIPOS>ATOM
      1 C1         -0.7110    3.9910    6.4320 c3        1 MOL     -0.284707
      2 C2         -0.5190    3.7240    4.9170 c         1 MOL      0.700819
      3 O1          0.2800    4.4560    4.3050 o         1 MOL     -0.616613
      4 H1         -0.3390    3.1390    7.0000 hc        1 MOL      0.076107
      5 H2         -0.1570    4.8860    6.7160 hc        1 MOL      0.076107
      6 H3         -1.7700    4.1360    6.6440 hc        1 MOL      0.076107
      7 N1         -1.4680    3.0900    4.2900 n         1 MOL     -0.516857
      8 C3         -1.4650    2.7510    2.9120 c3        1 MOL     -0.036307
      9 C4         -2.0640    3.9360    2.1320 c         1 MOL      0.536894
     10 O2         -3.2640    4.3280    2.1360 o         1 MOL     -0.533422
     11 C5         -2.3000    1.4740    2.7030 c3        1 MOL     -0.225933
     12 C6         -2.2410    0.9720    1.3110 c         1 MOL      0.938347
     13 O3         -1.2050    1.2990    0.6680 o         1 MOL     -0.878657
     14 O4         -3.1610    0.2980    0.7540 o         1 MOL     -0.878657
     15 H4         -2.2760    2.7450    4.7980 hn        1 MOL      0.314521
     16 H5         -0.4350    2.6070    2.5670 h1        1 MOL      0.115061
     17 H6         -3.3170    1.7330    2.9880 hc        1 MOL      0.057372
     18 H7         -1.8230    0.7200    3.3280 hc        1 MOL      0.057372
     19 N2         -1.2450    4.5810    1.3300 n         1 MOL     -0.032173
     20 C7         -1.3980    5.9240    0.8260 c3        1 MOL     -0.302757
     21 C8         -2.4680    5.9720   -0.2960 c         1 MOL      0.546462
     22 O5         -3.1540    7.0060   -0.2280 o         1 MOL     -0.551179
     23 C9         -0.0350    6.3970    0.3030 c3        1 MOL      0.033890
     24 C10        -0.0900    7.8590   -0.2580 c3        1 MOL     -0.091147
     25 C11         1.3220    8.3290   -0.6600 c3        1 MOL     -0.109676
     26 C12         2.0240    7.8540   -1.9360 c3        1 MOL      0.043020
     27 N3          3.4010    8.2390   -1.9070 n4        1 MOL     -0.269408
     28 H8         -0.2950    4.2490    1.2320 hn        1 MOL      0.162326
     29 H9         -1.7730    6.5710    1.6200 h1        1 MOL      0.169302
     30 H10         0.4290    5.7670   -0.4490 hc        1 MOL      0.041372
     31 H11         0.7090    6.3500    1.1050 hc        1 MOL      0.041372
     32 H12        -0.4670    8.4280    0.5900 hc        1 MOL      0.084723
     33 H13        -0.7100    7.9230   -1.1570 hc        1 MOL      0.084723
     34 H14         1.9650    7.9770    0.1470 hc        1 MOL      0.048334
     35 H15         1.2370    9.4130   -0.6190 hc        1 MOL      0.048334
     36 H16         1.5050    8.2320   -2.8180 hx        1 MOL      0.085883
     37 H17         2.0090    6.7650   -1.9720 hx        1 MOL      0.085883
     38 H18         3.8360    8.2280   -2.8250 hn        1 MOL      0.307423
     39 H19         3.5280    9.1530   -1.4850 hn        1 MOL      0.307423
     40 H20         4.0080    7.6540   -1.3530 hn        1 MOL      0.307423
     41 N4         -2.5490    4.9950   -1.1910 n         1 MOL     -0.322946
     42 C13        -3.7340    4.8090   -2.0750 c3        1 MOL      0.038620
     43 C14        -4.9470    4.1390   -1.4170 c         1 MOL      0.415807
     44 O6         -6.0520    4.1630   -1.9590 o         1 MOL     -0.538574
     45 C15        -3.2670    4.0170   -3.3320 c3        1 MOL     -0.256762
     46 C16        -2.6700    2.6460   -2.8490 c         1 MOL      0.714809
     47 O7         -3.3060    1.5580   -2.7110 o         1 MOL     -0.709628
     48 O8         -1.4330    2.4880   -2.8160 o         1 MOL     -0.709628
     49 H21        -1.8190    4.2960   -1.1050 hn        1 MOL      0.145188
     50 H22        -4.0320    5.8250   -2.3220 h1        1 MOL      0.083537
     51 H23        -2.4890    4.6040   -3.8310 hc        1 MOL      0.091822
     52 H24        -4.1480    3.9130   -3.9690 hc        1 MOL      0.091822
     53 N5         -4.6790    3.4220   -0.3370 n         1 MOL      0.045670
     54 C17        -5.6230    2.7170    0.4970 c3        1 MOL     -0.398147
     55 C18        -6.2060    1.3540    0.1700 c         1 MOL      0.591724
     56 O9         -7.1170    0.8930    0.8860 o         1 MOL     -0.579543
     57 H25        -3.7460    3.5800    0.0240 hn        1 MOL      0.048795
     58 H26        -6.4620    3.3970    0.6600 h1        1 MOL      0.159599
     59 H27        -4.9960    2.6240    1.3860 h1        1 MOL      0.159599
     60 N6         -5.7840    0.6870   -0.9260 n         1 MOL     -0.302313
     61 C19        -6.2080   -0.6900   -1.3240 c3        1 MOL      0.026161
     62 C20        -6.1550   -1.7640   -0.2110 c         1 MOL      0.369671
     63 O10        -6.6480   -2.8340   -0.4610 o         1 MOL     -0.482879
     64 C21        -5.7970   -1.1490   -2.6900 c3        1 MOL     -0.068025
     65 C22        -4.3460   -1.5900   -2.7400 c         1 MOL      0.641546
     66 N7         -3.9940   -2.4820   -3.6580 n         1 MOL     -0.693970
     67 O11        -3.5680   -1.3480   -1.7990 o         1 MOL     -0.793056
     68 H28        -5.0570    1.1120   -1.4980 hn        1 MOL      0.190791
     69 H29        -7.2840   -0.4890   -1.3640 h1        1 MOL      0.089252
     70 H30        -5.9490   -0.4210   -3.4940 hc        1 MOL      0.045837
     71 H31        -6.4070   -2.0080   -2.9710 hc        1 MOL      0.045837
     72 H32        -4.6930   -2.7030   -4.3390 hn        1 MOL      0.345703
     73 H33        -3.0670   -2.8880   -3.7040 hn        1 MOL      0.345703
     74 N8         -5.5510   -1.4990    0.9400 n         1 MOL     -0.073426
     75 C23        -5.5130   -2.4610    1.9810 c3        1 MOL     -0.340744
     76 C24        -4.2810   -3.3780    1.8730 c         1 MOL      0.587452
     77 O12        -4.0700   -4.2530    2.7310 o         1 MOL     -0.562181
     78 H34        -4.8360   -0.7790    0.9700 hn        1 MOL      0.228323
     79 H35        -6.4530   -3.0010    2.1160 h1        1 MOL      0.145301
     80 H36        -5.4910   -1.9030    2.9170 h1        1 MOL      0.145301
     81 N9         -3.3510   -3.1820    0.9080 n         1 MOL     -0.486236
     82 C25        -2.1810   -3.9090    0.7410 c3        1 MOL      0.242887
     83 C26        -0.8980   -3.0190    0.6340 c         1 MOL      0.399283
     84 O13        -0.9800   -1.8430    0.0760 o         1 MOL     -0.675705
     85 C27        -2.4060   -4.8490   -0.4260 c3        1 MOL     -0.243821
     86 C28        -3.4620   -5.9120   -0.1400 ca        1 MOL      0.040140
     87 C29        -4.8010   -5.7620   -0.5370 ca        1 MOL     -0.090509
     88 C30        -3.1210   -7.1130    0.4510 ca        1 MOL     -0.090509
     89 C31        -5.7790   -6.7280   -0.2520 ca        1 MOL     -0.336954
     90 C32        -4.0560   -8.1390    0.6980 ca        1 MOL     -0.336954
     91 C33        -5.3850   -7.9400    0.4000 ca        1 MOL      0.423773
     92 O14        -6.2540   -8.9770    0.5910 oh        1 MOL     -0.474327
     93 H37        -3.5280   -2.5030    0.1760 hn        1 MOL      0.546516
     94 H38        -2.0770   -4.5150    1.6350 h1        1 MOL      0.046112
     95 H39        -1.4480   -5.2840   -0.6790 hc        1 MOL      0.067103
     96 H40        -2.7630   -4.2720   -1.2750 hc        1 MOL      0.067103
     97 H41        -5.0400   -4.8640   -1.0860 ha        1 MOL      0.097117
     98 H42        -2.0610   -7.3100    0.5310 ha        1 MOL      0.097117
     99 H43        -6.8340   -6.5670   -0.3880 ha        1 MOL      0.165752
    100 H44        -3.6520   -9.0610    1.0870 ha        1 MOL      0.165752
    101 H45        -5.7000   -9.6930    0.9060 ho        1 MOL      0.324961
    102 N10         0.2400   -3.4420    1.2220 n         1 MOL     -0.434758
    103 C34         1.5310   -2.6680    1.2080 c3        1 MOL      0.112772
    104 C35         2.6790   -3.6280    0.7240 c         1 MOL      0.356987
    105 O15         3.0050   -4.6220    1.3800 o         1 MOL     -0.506403
    106 C36         1.8020   -2.1860    2.7000 c3        1 MOL     -0.069480
    107 C37         0.8320   -1.0540    2.9930 c3        1 MOL      0.097361
    108 C38         3.3070   -1.6730    2.7840 c3        1 MOL     -0.211052
    109 C39         0.7740   -0.5420    4.4080 c3        1 MOL     -0.089755
    110 H46         0.0810   -4.0380    2.0150 hn        1 MOL      0.288779
    111 H47         1.4740   -1.7940    0.5590 h1        1 MOL      0.068892
    112 H48         1.6230   -3.0350    3.3640 hc        1 MOL      0.052672
    113 H49        -0.1600   -1.3660    2.6850 hc        1 MOL      0.039919
    114 H50         1.0540   -0.2160    2.3330 hc        1 MOL      0.039919
    115 H51         3.9800   -2.5180    2.7540 hc        1 MOL      0.056482
    116 H52         3.6260   -1.1150    1.9000 hc        1 MOL      0.056482
    117 H53         3.4100   -1.1510    3.7420 hc        1 MOL      0.056482
    118 H54         0.2960   -1.2790    5.0610 hc        1 MOL      0.010980
    119 H55         1.6970   -0.1050    4.7750 hc        1 MOL      0.010980
    120 H56         0.0980    0.3100    4.4980 hc        1 MOL      0.010980
    121 N11         3.3250   -3.2130   -0.3720 n         1 MOL     -0.118948
    122 C40         4.5150   -3.7690   -1.0630 c3        1 MOL     -0.103466
    123 C41         5.7970   -3.2820   -0.3920 c         1 MOL      0.334444
    124 O16         5.7910   -2.2670    0.3880 o         1 MOL     -0.291447
    125 C42         4.5020   -3.6050   -2.5820 c3        1 MOL      0.231541
    126 O17         4.4110   -2.2370   -2.7870 oh        1 MOL     -0.598678
    127 H57         2.9280   -2.3590   -0.7360 hn        1 MOL      0.132351
    128 H58         4.4540   -4.8500   -0.9570 h1        1 MOL      0.067134
    129 H59         3.5980   -4.1030   -2.9280 h1        1 MOL      0.007428
    130 H60         5.4260   -4.0270   -2.9970 h1        1 MOL      0.007428
    131 H61         3.6290   -1.8710   -2.3620 ho        1 MOL      0.388029
    132 N12         6.9870   -3.8760   -0.6950 n         1 MOL     -0.323244
    133 C43         8.2080   -3.4420   -0.0740 c3        1 MOL      0.133084
    134 C44         8.3780   -1.9050   -0.2430 c         1 MOL      0.417330
    135 O18         8.6050   -1.2130    0.7650 o         1 MOL     -0.494566
    136 C45         9.3090   -4.3540   -0.6130 c3        1 MOL     -0.268639
    137 H62         7.0210   -4.6720   -1.3310 hn        1 MOL      0.258291
    138 H63         8.0480   -3.7230    0.9630 h1        1 MOL      0.078778
    139 H64        10.2790   -3.8650   -0.4850 hc        1 MOL      0.079992
    140 H65         9.2450   -5.3350   -0.1490 hc        1 MOL      0.079992
    141 H66         9.1910   -4.4500   -1.6960 hc        1 MOL      0.079992
    142 N13         8.2740   -1.3580   -1.5000 n         1 MOL     -0.309254
    143 C46         8.4730    0.0440   -1.7880 c3        1 MOL      0.040209
    144 C47         7.6040    0.9780   -0.9410 c         1 MOL      0.463925
    145 O19         8.1270    2.0570   -0.6340 o         1 MOL     -0.531555
    146 C48         8.2490    0.3500   -3.2780 c3        1 MOL     -0.239127
    147 H67         8.2060   -2.0050   -2.2690 hn        1 MOL      0.244235
    148 H68         9.4990    0.3310   -1.5320 h1        1 MOL      0.079388
    149 H69         8.8390    1.2170   -3.5670 hc        1 MOL      0.077006
    150 H70         8.6480   -0.4090   -3.9440 hc        1 MOL      0.077006
    151 H71         7.2230    0.6430   -3.5220 hc        1 MOL      0.077006
    152 N14         6.3280    0.6250   -0.6400 n         1 MOL     -0.098394
    153 C49         5.3740    1.3610    0.1990 c3        1 MOL     -0.314253
    154 C50         5.8240    1.2990    1.7110 c         1 MOL      0.515894
    155 O20         5.8560    2.3150    2.4220 o         1 MOL     -0.557063
    156 C51         3.9460    0.8410   -0.0990 c3        1 MOL      0.256031
    157 C52         3.4530    1.2660   -1.4890 c3        1 MOL     -0.265386
    158 C53         2.1740    0.4060   -1.8300 c         1 MOL      0.816795
    159 O21         1.0340    0.8770   -1.9700 o         1 MOL     -0.721954
    160 O22         2.3210   -0.8720   -1.8410 o         1 MOL     -0.721954
    161 H72         6.0810   -0.3130   -0.9170 hn        1 MOL      0.068690
    162 H73         5.2720    2.3720   -0.1820 h1        1 MOL      0.127112
    163 H74         3.2590    1.0260    0.7280 hc        1 MOL     -0.026912
    164 H75         4.0650   -0.2470   -0.0640 hc        1 MOL     -0.026912
    165 H76         4.1490    1.0330   -2.3000 hc        1 MOL      0.052184
    166 H77         3.1430    2.3110   -1.4980 hc        1 MOL      0.052184
    167 N15         6.0990    0.0950    2.3060 n         1 MOL     -0.014377
    168 C54         6.6250   -0.1820    3.6560 c3        1 MOL     -0.347422
    169 H78         6.5010   -1.2410    3.8820 h1        1 MOL      0.125958
    170 H79         7.6830    0.0760    3.6940 h1        1 MOL      0.125958
    171 H80         6.0780    0.4110    4.3880 h1        1 MOL      0.125958
    172 H81         6.1890   -0.7090    1.6940 hn        1 MOL      0.067284
    173 Ca1        -1.4190    0.2150   -1.6220 Ca        1 MOL      1.838232
    174 O23         0.1910   -1.9890   -2.5590 oh        1 MOL     -0.807335
    175 H82         0.9500   -1.5140   -2.2250 ho        1 MOL      0.395840
    176 H83         0.4180   -2.9130   -2.4570 ho        1 MOL      0.395840
    177 O24        -1.7000   -0.0020   -4.3970 oh        1 MOL     -0.807335
    178 H84        -1.4600   -0.3720   -5.2520 ho        1 MOL      0.395840
    179 H85        -2.5040    0.4830   -4.5690 ho        1 MOL      0.395840
@<TRIPOS>BOND
     1    1    2 1   
     2    1    4 1   
     3    1    5 1   
     4    1    6 1   
     5    2    3 2   
     6    2    7 1   
     7    7    8 1   
     8    7   15 1   
     9    8    9 1   
    10    8   11 1   
    11    8   16 1   
    12    9   10 2   
    13    9   19 1   
    14   11   12 1   
    15   11   17 1   
    16   11   18 1   
    17   12   13 1   
    18   12   14 1   
    19   19   20 1   
    20   19   28 1   
    21   20   21 1   
    22   20   23 1   
    23   20   29 1   
    24   21   22 2   
    25   21   41 1   
    26   23   24 1   
    27   23   30 1   
    28   23   31 1   
    29   24   25 1   
    30   24   32 1   
    31   24   33 1   
    32   25   26 1   
    33   25   34 1   
    34   25   35 1   
    35   26   27 1   
    36   26   36 1   
    37   26   37 1   
    38   27   38 1   
    39   27   39 1   
    40   27   40 1   
    41   41   42 1   
    42   41   49 1   
    43   42   43 1   
    44   42   45 1   
    45   42   50 1   
    46   43   44 2   
    47   43   53 1   
    48   45   46 1   
    49   45   51 1   
    50   45   52 1   
    51   46   47 1   
    52   46   48 1   
    53   53   54 1   
    54   53   57 1   
    55   54   55 1   
    56   54   58 1   
    57   54   59 1   
    58   55   56 2   
    59   55   60 1   
    60   60   61 1   
    61   60   68 1   
    62   61   62 1   
    63   61   64 1   
    64   61   69 1   
    65   62   63 2   
    66   62   74 1   
    67   64   65 1   
    68   64   70 1   
    69   64   71 1   
    70   65   66 1   
    71   65   67 2   
    72   66   72 1   
    73   66   73 1   
    74   74   75 1   
    75   74   78 1   
    76   75   76 1   
    77   75   79 1   
    78   75   80 1   
    79   76   77 2   
    80   76   81 1   
    81   81   82 1   
    82   81   93 1   
    83   82   83 1   
    84   82   85 1   
    85   82   94 1   
    86   83   84 2   
    87   83  102 1   
    88   85   86 1   
    89   85   95 1   
    90   85   96 1   
    91   86   87 ar  
    92   86   88 ar  
    93   87   89 ar  
    94   87   97 1   
    95   88   90 ar  
    96   88   98 1   
    97   89   91 ar  
    98   89   99 1   
    99   90   91 ar  
   100   90  100 1   
   101   91   92 1   
   102   92  101 1   
   103  102  103 1   
   104  102  110 1   
   105  103  104 1   
   106  103  106 1   
   107  103  111 1   
   108  104  105 2   
   109  104  121 1   
   110  106  107 1   
   111  106  108 1   
   112  106  112 1   
   113  107  109 1   
   114  107  113 1   
   115  107  114 1   
   116  108  115 1   
   117  108  116 1   
   118  108  117 1   
   119  109  118 1   
   120  109  119 1   
   121  109  120 1   
   122  121  122 1   
   123  121  127 1   
   124  122  123 1   
   125  122  125 1   
   126  122  128 1   
   127  123  124 2   
   128  123  132 1   
   129  125  126 1   
   130  125  129 1   
   131  125  130 1   
   132  126  131 1   
   133  132  133 1   
   134  132  137 1   
   135  133  134 1   
   136  133  136 1   
   137  133  138 1   
   138  134  135 2   
   139  134  142 1   
   140  136  139 1   
   141  136  140 1   
   142  136  141 1   
   143  142  143 1   
   144  142  147 1   
   145  143  144 1   
   146  143  146 1   
   147  143  148 1   
   148  144  145 2   
   149  144  152 1   
   150  146  149 1   
   151  146  150 1   
   152  146  151 1   
   153  152  153 1   
   154  152  161 1   
   155  153  154 1   
   156  153  156 1   
   157  153  162 1   
   158  154  155 2   
   159  154  167 1   
   160  156  157 1   
   161  156  163 1   
   162  156  164 1   
   163  157  158 1   
   164  157  165 1   
   165  157  166 1   
   166  158  159 1   
   167  158  160 1   
   168  167  168 1   
   169  167  172 1   
   170  168  169 1   
   171  168  170 1   
   172  168  171 1   
   173  174  175 1   
   174  174  176 1   
   175  177  178 1   
   176  177  179 1   
@<TRIPOS>SUBSTRUCTURE
     1 MOL         1 TEMP              0 ****  ****    0 ROOT
