@<TRIPOS>MOLECULE
MOL
  189   185     1     0     0
SMALL
resp


@<TRIPOS>ATOM
      1 C1          0.6240   -5.2430    5.6530 c3        1 MOL     -0.382154
      2 C2          1.2540   -4.3870    4.4760 c         1 MOL      0.739807
      3 O1          1.3120   -3.2040    4.5200 o         1 MOL     -0.605868
      4 H1         -0.4460   -5.3640    5.4820 hc        1 MOL      0.091570
      5 H2          1.1000   -6.2240    5.6850 hc        1 MOL      0.091570
      6 H3          0.7830   -4.7310    6.6020 hc        1 MOL      0.091570
      7 N1          1.7110   -5.0810    3.4340 n         1 MOL     -0.653892
      8 C3          2.2530   -4.4780    2.2190 c3        1 MOL      0.305317
      9 C4          1.9930   -5.2900    0.9490 c         1 MOL      0.542158
     10 O2          1.8300   -6.4980    1.0280 o         1 MOL     -0.638397
     11 C5          3.7440   -4.2690    2.4970 c3        1 MOL     -0.248021
     12 C6          4.4790   -3.4680    1.3590 c         1 MOL      0.650402
     13 O3          5.7240   -3.6200    1.2550 o         1 MOL     -0.659423
     14 O4          3.8760   -2.6070    0.6360 o         1 MOL     -0.659423
     15 H4          1.6110   -6.0880    3.4680 hn        1 MOL      0.312833
     16 H5          1.7980   -3.5070    2.0240 h1        1 MOL      0.097481
     17 H6          4.1470   -5.2750    2.6090 hc        1 MOL      0.050473
     18 H7          3.9110   -3.8330    3.4790 hc        1 MOL      0.050473
     19 N2          1.9870   -4.7260   -0.2420 n         1 MOL     -0.024982
     20 C7          1.9660   -5.2820   -1.5950 c3        1 MOL     -0.084370
     21 C8          3.2610   -4.9790   -2.4680 c         1 MOL      0.598300
     22 O5          3.6430   -5.8670   -3.2420 o         1 MOL     -0.595270
     23 C9          0.6950   -4.7260   -2.2670 c3        1 MOL      0.158656
     24 C10        -0.5430   -5.3000   -1.5540 c3        1 MOL      0.125449
     25 C11         0.5610   -4.9650   -3.7690 c3        1 MOL     -0.196242
     26 C12        -1.8780   -4.7270   -1.9890 c3        1 MOL     -0.353470
     27 H8          2.1230   -3.7290   -0.1500 hn        1 MOL     -0.326239
     28 H9          1.8670   -6.3680   -1.5920 h1        1 MOL      0.052080
     29 H10         0.6890   -3.6500   -2.1150 hc        1 MOL      0.103092
     30 H11        -0.5000   -5.0770   -0.4870 hc        1 MOL     -0.026427
     31 H12        -0.6170   -6.3930   -1.6090 hc        1 MOL     -0.026427
     32 H13         1.4430   -4.4480   -4.1560 hc        1 MOL      0.031800
     33 H14         0.5310   -6.0460   -3.8970 hc        1 MOL      0.031800
     34 H15        -0.3100   -4.5620   -4.2880 hc        1 MOL      0.031800
     35 H16        -2.0870   -5.3130   -2.8850 hc        1 MOL      0.080330
     36 H17        -2.6220   -4.9690   -1.2170 hc        1 MOL      0.080330
     37 H18        -1.7690   -3.6720   -2.2510 hc        1 MOL      0.080330
     38 N3          3.9280   -3.8540   -2.2260 n         1 MOL     -0.466179
     39 C13         4.7440   -3.2140   -3.2810 c3        1 MOL      0.080290
     40 C14         6.0040   -2.5370   -2.7520 c         1 MOL      0.330546
     41 O6          6.8490   -2.0370   -3.5860 o         1 MOL     -0.580909
     42 C15         3.8400   -2.2960   -4.0630 c3        1 MOL     -0.297979
     43 C16         2.7920   -1.4390   -3.3040 c         1 MOL      0.691862
     44 O7          2.9340   -1.3550   -2.0660 o         1 MOL     -0.682507
     45 O8          1.6980   -1.1960   -3.8270 o         1 MOL     -0.682507
     46 H19         3.5330   -3.2310   -1.5300 hn        1 MOL      0.414384
     47 H20         5.1490   -3.9800   -3.9530 h1        1 MOL      0.103217
     48 H21         3.3550   -2.9430   -4.7950 hc        1 MOL      0.081230
     49 H22         4.4550   -1.5440   -4.5520 hc        1 MOL      0.081230
     50 N4          6.1890   -2.4230   -1.4530 n         1 MOL     -0.036938
     51 C17         7.3680   -1.7270   -0.9040 c3        1 MOL     -0.296027
     52 C18         7.5910   -0.2540   -1.2140 c         1 MOL      0.536073
     53 O9          8.6670    0.2820   -0.9780 o         1 MOL     -0.610838
     54 H23         5.4760   -2.8590   -0.8760 hn        1 MOL      0.109014
     55 H24         8.2600   -2.1900   -1.3390 h1        1 MOL      0.128484
     56 H25         7.3740   -1.9350    0.1610 h1        1 MOL      0.128484
     57 N5          6.5310    0.4560   -1.7010 n         1 MOL     -0.088549
     58 C19         6.5390    1.8450   -2.1680 c3        1 MOL     -0.103447
     59 C20         6.6040    2.8510   -0.9940 c         1 MOL      0.499282
     60 O10         6.5050    4.0960   -1.0680 o         1 MOL     -0.542403
     61 C21         5.3000    2.0710   -3.1040 c3        1 MOL     -0.251206
     62 C22         3.9670    1.8680   -2.3870 c         1 MOL      0.876347
     63 O11         3.9280    1.4110   -1.2700 o         1 MOL     -0.726514
     64 O12         2.9720    2.3180   -2.9900 o         1 MOL     -0.726514
     65 H26         5.6560    0.0290   -1.4230 hn        1 MOL      0.106939
     66 H27         7.5160    2.0040   -2.6300 h1        1 MOL      0.111608
     67 H28         5.3590    1.4350   -3.9960 hc        1 MOL      0.069498
     68 H29         5.3460    3.1300   -3.3540 hc        1 MOL      0.069498
     69 N6          6.8400    2.3920    0.2670 n         1 MOL     -0.358893
     70 C23         6.8810    3.2330    1.5180 c3        1 MOL     -0.003991
     71 C24         5.6230    3.9910    1.9570 c         1 MOL      0.420927
     72 O13         5.6000    4.9650    2.7260 o         1 MOL     -0.578113
     73 H30         6.9020    1.3800    0.3260 hn        1 MOL      0.241312
     74 H31         7.6910    3.9380    1.3080 h1        1 MOL      0.063568
     75 H32         7.3040    2.6640    2.3440 h1        1 MOL      0.063568
     76 N7          4.4890    3.6440    1.3280 n         1 MOL     -0.210703
     77 C25         3.2210    4.3870    1.4460 c3        1 MOL      0.039265
     78 C26         2.0100    3.4460    1.5740 c         1 MOL      0.374092
     79 O14         2.0660    2.2480    1.3210 o         1 MOL     -0.493895
     80 C27         2.9920    5.4070    0.3230 c3        1 MOL     -0.133230
     81 C28         4.0890    6.5270    0.3650 c3        1 MOL     -0.315016
     82 C29         3.7370    7.6880   -0.5350 c         1 MOL      0.795816
     83 N8          4.4870    8.7520   -0.4310 n         1 MOL     -0.860733
     84 O15         2.7490    7.7280   -1.2020 o         1 MOL     -0.574601
     85 H33         4.4920    2.7350    0.8810 hn        1 MOL      0.250373
     86 H34         3.2580    4.9380    2.3830 h1        1 MOL      0.051738
     87 H35         1.9690    5.7700    0.3870 hc        1 MOL      0.085681
     88 H36         3.1380    4.8130   -0.5810 hc        1 MOL      0.085681
     89 H37         5.0210    6.0660    0.0380 hc        1 MOL      0.112049
     90 H38         4.1220    6.8840    1.3970 hc        1 MOL      0.112049
     91 H39         5.3090    8.7500    0.1440 hn        1 MOL      0.349871
     92 H40         4.2190    9.6810   -0.7260 hn        1 MOL      0.349871
     93 N9          0.8660    3.9260    2.0540 n         1 MOL     -0.360974
     94 C30        -0.2320    2.9630    2.3180 c3        1 MOL      0.134851
     95 C31        -1.4550    3.2480    1.3820 c         1 MOL      0.357984
     96 O16        -2.1590    4.2820    1.5040 o         1 MOL     -0.571218
     97 C32        -0.6520    3.0130    3.8110 c3        1 MOL      0.276126
     98 C33        -1.8450    2.1440    4.0430 c3        1 MOL     -0.138770
     99 C34         0.4470    2.6730    4.7720 c3        1 MOL     -0.138770
    100 H41         0.9970    4.8670    2.4140 hn        1 MOL      0.265327
    101 H42        -0.1460    1.9020    2.1390 h1        1 MOL      0.003474
    102 H43        -0.9600    4.0470    3.9420 hc        1 MOL     -0.060215
    103 H44        -2.7150    2.6180    3.5950 hc        1 MOL      0.012955
    104 H45        -1.8000    1.0690    3.8250 hc        1 MOL      0.012955
    105 H46        -2.0860    2.2110    5.1070 hc        1 MOL      0.012955
    106 H47         0.0160    2.8460    5.7590 hc        1 MOL      0.012955
    107 H48         0.8800    1.6670    4.7150 hc        1 MOL      0.012955
    108 H49         1.2430    3.4170    4.7790 hc        1 MOL      0.012955
    109 N10        -1.7030    2.2840    0.5430 n         1 MOL     -0.202292
    110 C35        -3.0150    2.3480   -0.2530 c3        1 MOL      0.024338
    111 C36        -4.2230    2.0690    0.6470 c         1 MOL      0.035707
    112 O17        -4.0940    1.2860    1.5830 o         1 MOL     -0.223939
    113 C37        -2.7840    1.4310   -1.4210 c3        1 MOL     -0.137759
    114 C38        -3.8660    1.5070   -2.4550 c         1 MOL      0.706997
    115 N11        -3.9920    2.6870   -3.0820 n         1 MOL     -0.755090
    116 O18        -4.6220    0.5770   -2.5310 o         1 MOL     -0.573810
    117 H50        -1.0710    1.5110    0.4140 hn        1 MOL      0.213059
    118 H51        -3.1770    3.3430   -0.6650 h1        1 MOL      0.083009
    119 H52        -2.6210    0.3850   -1.1370 hc        1 MOL      0.080918
    120 H53        -1.8940    1.6760   -2.0070 hc        1 MOL      0.080918
    121 H54        -3.4620    3.5210   -2.8280 hn        1 MOL      0.312996
    122 H55        -4.7520    2.8010   -3.7350 hn        1 MOL      0.312996
    123 N12        -5.3730    2.6270    0.3820 n         1 MOL      0.003804
    124 C39        -6.7210    2.2490    0.9810 c3        1 MOL      0.050320
    125 C40        -6.9730    0.6760    1.1210 c         1 MOL      0.265223
    126 O19        -7.4010    0.2090    2.2280 o         1 MOL     -0.511718
    127 C41        -7.8410    2.8730    0.1680 c3        1 MOL     -0.104087
    128 C42        -7.6730    2.7420   -1.3240 ca        1 MOL      0.138318
    129 C43        -7.0580    3.7590   -2.0740 ca        1 MOL     -0.241972
    130 C44        -8.5210    1.7840   -1.9490 ca        1 MOL     -0.241972
    131 C45        -7.2040    3.6720   -3.4650 ca        1 MOL     -0.179516
    132 C46        -8.5700    1.7040   -3.3450 ca        1 MOL     -0.179516
    133 C47        -7.8900    2.6850   -4.1100 ca        1 MOL      0.272404
    134 O20        -8.1740    2.7790   -5.4880 oh        1 MOL     -0.429601
    135 H56        -5.3590    3.4230   -0.2350 hn        1 MOL      0.122216
    136 H57        -6.7690    2.7660    1.9410 h1        1 MOL      0.058265
    137 H58        -7.7390    3.9550    0.3070 hc        1 MOL      0.040999
    138 H59        -8.8120    2.4880    0.4780 hc        1 MOL      0.040999
    139 H60        -6.5290    4.5910   -1.6270 ha        1 MOL      0.156108
    140 H61        -9.0350    1.0060   -1.3970 ha        1 MOL      0.156108
    141 H62        -6.7710    4.4150   -4.1160 ha        1 MOL      0.119038
    142 H63        -9.1290    0.8600   -3.7370 ha        1 MOL      0.119038
    143 H64        -7.8940    3.6690   -5.7250 ho        1 MOL      0.288302
    144 N13        -6.5790   -0.1030    0.0570 n         1 MOL      0.088685
    145 C48        -6.6220   -1.6440    0.1820 c3        1 MOL     -0.449053
    146 C49        -5.5620   -2.2720    1.0470 c         1 MOL      0.593060
    147 O21        -5.6610   -3.4280    1.3370 o         1 MOL     -0.519080
    148 C50        -6.4560   -2.1950   -1.2430 c3        1 MOL      0.090211
    149 C51        -7.6130   -1.8790   -2.2160 c3        1 MOL     -0.052889
    150 C52        -8.9420   -2.4730   -1.8560 c         1 MOL      0.680709
    151 O22        -9.0270   -3.3000   -0.8870 o         1 MOL     -0.719751
    152 O23        -9.9300   -2.1300   -2.5130 o         1 MOL     -0.719751
    153 H65        -6.2100    0.3910   -0.7490 hn        1 MOL      0.177718
    154 H66        -7.5740   -1.9970    0.5810 h1        1 MOL      0.215610
    155 H67        -6.4680   -3.2750   -1.1640 hc        1 MOL     -0.003430
    156 H68        -5.4840   -1.8160   -1.5740 hc        1 MOL     -0.003430
    157 H69        -7.3120   -2.2830   -3.1830 hc        1 MOL     -0.001698
    158 H70        -7.7800   -0.8180   -2.3350 hc        1 MOL     -0.001698
    159 N14        -4.4740   -1.5570    1.4420 n         1 MOL     -0.255971
    160 C53        -3.5650   -1.9890    2.5550 c3        1 MOL     -0.045687
    161 C54        -3.9270   -1.3520    3.9010 c         1 MOL      0.441594
    162 O24        -3.7680   -2.0870    4.8780 o         1 MOL     -0.570558
    163 C55        -2.1370   -1.5520    2.2200 c3        1 MOL     -0.148595
    164 C56        -1.4950   -2.2300    0.9840 c3        1 MOL      0.041817
    165 C57        -0.2330   -1.5430    0.6160 c         1 MOL      0.809313
    166 O25         0.7880   -2.2020    0.2060 o         1 MOL     -0.766411
    167 O26        -0.0290   -0.3470    0.7860 o         1 MOL     -0.766411
    168 H71        -4.4320   -0.5760    1.2220 hn        1 MOL      0.084972
    169 H72        -3.8510   -3.0330    2.6580 h1        1 MOL      0.099828
    170 H73        -1.5200   -1.7100    3.1000 hc        1 MOL      0.077008
    171 H74        -2.1700   -0.4710    2.0840 hc        1 MOL      0.077008
    172 H75        -2.1970   -2.2790    0.1550 hc        1 MOL      0.011182
    173 H76        -1.2650   -3.2390    1.3130 hc        1 MOL      0.011182
    174 N15        -4.5660   -0.1650    4.0110 n         1 MOL     -0.034415
    175 C58        -5.0260    0.4540    5.2480 c3        1 MOL     -0.129102
    176 H77        -6.0740    0.2040    5.4120 h1        1 MOL      0.051638
    177 H78        -4.4300    0.0860    6.0820 h1        1 MOL      0.051638
    178 H79        -4.9190    1.5370    5.1750 h1        1 MOL      0.051638
    179 H80        -4.6890    0.3420    3.1520 hn        1 MOL      0.071653
    180 Ca1         2.4910   -0.1880    0.2760 Ca        1 MOL      1.725284
    181 O27         2.4000   -0.9420    2.8250 oh        1 MOL     -0.864652
    182 H81         2.8550   -0.4310    3.4830 ho        1 MOL      0.412435
    183 H82         2.0290   -1.6840    3.3120 ho        1 MOL      0.412435
    184 O28         4.7380    0.5230    1.8380 oh        1 MOL     -0.864652
    185 H83         5.4970   -0.0010    1.5890 ho        1 MOL      0.412435
    186 H84         4.6360    0.3650    2.7810 ho        1 MOL      0.412435
    187 O29         0.9810    0.8760   -1.8750 oh        1 MOL     -0.864652
    188 H85         1.6860    1.3900   -2.2800 ho        1 MOL      0.412435
    189 H86         0.9840    0.0580   -2.3620 ho        1 MOL      0.412435
@<TRIPOS>BOND
     1    1    2 1   
     2    1    4 1   
     3    1    5 1   
     4    1    6 1   
     5    2    3 2   
     6    2    7 1   
     7    7    8 1   
     8    7   15 1   
     9    8    9 1   
    10    8   11 1   
    11    8   16 1   
    12    9   10 2   
    13    9   19 1   
    14   11   12 1   
    15   11   17 1   
    16   11   18 1   
    17   12   13 1   
    18   12   14 1   
    19   19   20 1   
    20   19   27 1   
    21   20   21 1   
    22   20   23 1   
    23   20   28 1   
    24   21   22 2   
    25   21   38 1   
    26   23   24 1   
    27   23   25 1   
    28   23   29 1   
    29   24   26 1   
    30   24   30 1   
    31   24   31 1   
    32   25   32 1   
    33   25   33 1   
    34   25   34 1   
    35   26   35 1   
    36   26   36 1   
    37   26   37 1   
    38   38   39 1   
    39   38   46 1   
    40   39   40 1   
    41   39   42 1   
    42   39   47 1   
    43   40   41 2   
    44   40   50 1   
    45   42   43 1   
    46   42   48 1   
    47   42   49 1   
    48   43   44 1   
    49   43   45 1   
    50   50   51 1   
    51   50   54 1   
    52   51   52 1   
    53   51   55 1   
    54   51   56 1   
    55   52   53 2   
    56   52   57 1   
    57   57   58 1   
    58   57   65 1   
    59   58   59 1   
    60   58   61 1   
    61   58   66 1   
    62   59   60 2   
    63   59   69 1   
    64   61   62 1   
    65   61   67 1   
    66   61   68 1   
    67   62   63 1   
    68   62   64 1   
    69   69   70 1   
    70   69   73 1   
    71   70   71 1   
    72   70   74 1   
    73   70   75 1   
    74   71   72 2   
    75   71   76 1   
    76   76   77 1   
    77   76   85 1   
    78   77   78 1   
    79   77   80 1   
    80   77   86 1   
    81   78   79 2   
    82   78   93 1   
    83   80   81 1   
    84   80   87 1   
    85   80   88 1   
    86   81   82 1   
    87   81   89 1   
    88   81   90 1   
    89   82   83 1   
    90   82   84 2   
    91   83   91 1   
    92   83   92 1   
    93   93   94 1   
    94   93  100 1   
    95   94   95 1   
    96   94   97 1   
    97   94  101 1   
    98   95   96 2   
    99   95  109 1   
   100   97   98 1   
   101   97   99 1   
   102   97  102 1   
   103   98  103 1   
   104   98  104 1   
   105   98  105 1   
   106   99  106 1   
   107   99  107 1   
   108   99  108 1   
   109  109  110 1   
   110  109  117 1   
   111  110  111 1   
   112  110  113 1   
   113  110  118 1   
   114  111  112 2   
   115  111  123 1   
   116  113  114 1   
   117  113  119 1   
   118  113  120 1   
   119  114  115 1   
   120  114  116 2   
   121  115  121 1   
   122  115  122 1   
   123  123  124 1   
   124  123  135 1   
   125  124  125 1   
   126  124  127 1   
   127  124  136 1   
   128  125  126 2   
   129  125  144 1   
   130  127  128 1   
   131  127  137 1   
   132  127  138 1   
   133  128  129 ar  
   134  128  130 ar  
   135  129  131 ar  
   136  129  139 1   
   137  130  132 ar  
   138  130  140 1   
   139  131  133 ar  
   140  131  141 1   
   141  132  133 ar  
   142  132  142 1   
   143  133  134 1   
   144  134  143 1   
   145  144  145 1   
   146  144  153 1   
   147  145  146 1   
   148  145  148 1   
   149  145  154 1   
   150  146  147 2   
   151  146  159 1   
   152  148  149 1   
   153  148  155 1   
   154  148  156 1   
   155  149  150 1   
   156  149  157 1   
   157  149  158 1   
   158  150  151 1   
   159  150  152 1   
   160  159  160 1   
   161  159  168 1   
   162  160  161 1   
   163  160  163 1   
   164  160  169 1   
   165  161  162 2   
   166  161  174 1   
   167  163  164 1   
   168  163  170 1   
   169  163  171 1   
   170  164  165 1   
   171  164  172 1   
   172  164  173 1   
   173  165  166 1   
   174  165  167 1   
   175  174  175 1   
   176  174  179 1   
   177  175  176 1   
   178  175  177 1   
   179  175  178 1   
   180  181  182 1   
   181  181  183 1   
   182  184  185 1   
   183  184  186 1   
   184  187  188 1   
   185  187  189 1   
@<TRIPOS>SUBSTRUCTURE
     1 MOL         1 TEMP              0 ****  ****    0 ROOT
