@<TRIPOS>MOLECULE
MOL
  179   176     1     0     0
SMALL
resp


@<TRIPOS>ATOM
      1 C1          1.6260    4.1300    4.4680 c3        1 MOL     -0.158802
      2 C2          1.1250    3.5360    3.1980 c         1 MOL      0.772267
      3 O1          1.9340    3.2710    2.2820 o         1 MOL     -0.582307
      4 H1          1.0960    5.0610    4.6670 hc        1 MOL      0.032565
      5 H2          1.4560    3.4330    5.2880 hc        1 MOL      0.032565
      6 H3          2.6940    4.3330    4.3780 hc        1 MOL      0.032565
      7 N1         -0.2510    3.3890    3.1660 n         1 MOL     -0.764224
      8 C3         -1.1250    2.7880    2.0750 c3        1 MOL     -0.087215
      9 C4         -1.8230    3.9430    1.3720 c         1 MOL      0.660601
     10 O2         -3.0080    4.2990    1.5940 o         1 MOL     -0.489724
     11 C5         -2.0860    1.7110    2.5980 c3        1 MOL      0.057890
     12 C6         -3.0350    1.1820    1.5410 c         1 MOL      0.425493
     13 O3         -2.5740    0.9790    0.3340 o         1 MOL     -0.612107
     14 O4         -4.1960    0.9400    1.9680 o         1 MOL     -0.612107
     15 H4         -0.7410    3.5850    4.0250 hn        1 MOL      0.377720
     16 H5         -0.4340    2.2510    1.4320 h1        1 MOL      0.050432
     17 H6         -2.6900    2.0590    3.4370 hc        1 MOL      0.026761
     18 H7         -1.5260    0.8820    3.0240 hc        1 MOL      0.026761
     19 N2         -1.0320    4.6360    0.5380 n         1 MOL     -0.402936
     20 C7         -1.3840    5.9740    0.0310 c3        1 MOL     -0.052552
     21 C8         -2.5880    5.8820   -0.9850 c         1 MOL      0.374268
     22 O5         -3.4240    6.8180   -0.9270 o         1 MOL     -0.534209
     23 C9         -0.1410    6.7120   -0.5430 c3        1 MOL     -0.132769
     24 C10         0.8330    7.0890    0.5860 c3        1 MOL      0.049542
     25 C11         2.2410    7.6520    0.1530 c3        1 MOL     -0.209965
     26 C12         3.1940    7.9230    1.3090 c3        1 MOL     -0.072547
     27 N3          2.7080    8.8230    2.4380 n4        1 MOL     -0.368615
     28 H8         -0.0640    4.4150    0.3680 hn        1 MOL      0.308476
     29 H9         -1.7560    6.5500    0.8840 h1        1 MOL      0.107057
     30 H10        -0.4360    7.6500   -1.0200 hc        1 MOL      0.077012
     31 H11         0.2850    6.1700   -1.3880 hc        1 MOL      0.077012
     32 H12         1.1260    6.2300    1.1900 hc        1 MOL      0.016497
     33 H13         0.2700    7.6450    1.3320 hc        1 MOL      0.016497
     34 H14         2.0480    8.5270   -0.4660 hc        1 MOL      0.112257
     35 H15         2.7470    6.9050   -0.4550 hc        1 MOL      0.112257
     36 H16         4.0580    8.4090    0.8510 hx        1 MOL      0.145884
     37 H17         3.5650    7.0540    1.8610 hx        1 MOL      0.145884
     38 H18         3.3950    9.4610    2.8290 hn        1 MOL      0.327392
     39 H19         2.2920    9.6390    2.0030 hn        1 MOL      0.327392
     40 H20         2.0960    8.3680    3.0900 hn        1 MOL      0.327392
     41 N4         -2.7550    4.7730   -1.7040 n         1 MOL     -0.249336
     42 C13        -3.8840    4.4630   -2.6590 c3        1 MOL      0.114579
     43 C14        -5.1170    3.9230   -1.8840 c         1 MOL      0.473400
     44 O6         -6.2120    4.0340   -2.3640 o         1 MOL     -0.540704
     45 C15        -3.3710    3.4510   -3.7090 c3        1 MOL     -0.329450
     46 C16        -2.7270    2.2400   -3.0130 c         1 MOL      0.809087
     47 O7         -3.2250    1.1370   -3.0690 o         1 MOL     -0.777118
     48 O8         -1.6080    2.3970   -2.4780 o         1 MOL     -0.777118
     49 H21        -2.0200    4.1020   -1.6080 hn        1 MOL      0.222364
     50 H22        -4.2560    5.3620   -3.1510 h1        1 MOL      0.058801
     51 H23        -2.5210    3.9340   -4.2100 hc        1 MOL      0.090199
     52 H24        -4.1940    3.1790   -4.3710 hc        1 MOL      0.090199
     53 N5         -4.8470    3.2760   -0.7300 n         1 MOL      0.006772
     54 C17        -5.8410    2.8290    0.2020 c3        1 MOL     -0.150710
     55 C18        -6.5630    1.5430    0.1280 c         1 MOL      0.495041
     56 O9         -7.6920    1.4120    0.5940 o         1 MOL     -0.575952
     57 H25        -3.9080    3.1270   -0.3760 hn        1 MOL     -0.047550
     58 H26        -6.6280    3.5870    0.1750 h1        1 MOL      0.093871
     59 H27        -5.4700    3.0110    1.2150 h1        1 MOL      0.093871
     60 N6         -5.9330    0.6280   -0.5280 n         1 MOL     -0.120428
     61 C19        -6.4560   -0.6890   -0.9580 c3        1 MOL     -0.092633
     62 C20        -6.4320   -1.7880    0.0980 c         1 MOL      0.319354
     63 O10        -7.0440   -2.8350   -0.1120 o         1 MOL     -0.451292
     64 C21        -5.7550   -1.0930   -2.2450 c3        1 MOL     -0.125917
     65 C22        -4.3270   -1.6140   -2.2430 c         1 MOL      0.531922
     66 N7         -3.7540   -1.8180   -3.3970 n         1 MOL     -0.520819
     67 O11        -3.6620   -1.5840   -1.2370 o         1 MOL     -0.506234
     68 H28        -5.0240    0.8740   -0.8920 hn        1 MOL      0.088629
     69 H29        -7.5120   -0.4810   -1.1550 h1        1 MOL      0.123181
     70 H30        -5.8890   -0.2700   -2.9410 hc        1 MOL      0.072845
     71 H31        -6.3720   -1.9080   -2.6230 hc        1 MOL      0.072845
     72 H32        -4.4350   -1.9460   -4.1330 hn        1 MOL      0.266426
     73 H33        -2.8630   -2.2970   -3.3940 hn        1 MOL      0.266426
     74 N8         -5.7450   -1.5580    1.2450 n         1 MOL     -0.181926
     75 C23        -5.6440   -2.5320    2.3190 c3        1 MOL     -0.260931
     76 C24        -4.2990   -3.1750    2.5110 c         1 MOL      0.638133
     77 O12        -4.1500   -4.0800    3.3490 o         1 MOL     -0.580904
     78 H34        -5.4240   -0.6280    1.4300 hn        1 MOL      0.302022
     79 H35        -6.4050   -3.3100    2.2110 h1        1 MOL      0.136152
     80 H36        -5.8620   -1.9620    3.2210 h1        1 MOL      0.136152
     81 N9         -3.3530   -2.8990    1.5870 n         1 MOL     -0.459335
     82 C25        -2.0750   -3.6580    1.4730 c3        1 MOL      0.060446
     83 C26        -0.9980   -2.7150    1.1380 c         1 MOL      0.498284
     84 O13        -1.0150   -1.9390    0.1520 o         1 MOL     -0.542822
     85 C27        -2.2270   -4.8030    0.4120 c3        1 MOL      0.150537
     86 C28        -3.5180   -5.5330    0.4220 ca        1 MOL     -0.151705
     87 C29        -4.5660   -5.1340   -0.4820 ca        1 MOL     -0.102962
     88 C30        -3.7030   -6.5370    1.3610 ca        1 MOL     -0.102962
     89 C31        -5.7950   -5.8320   -0.4100 ca        1 MOL     -0.210439
     90 C32        -4.8950   -7.2630    1.3850 ca        1 MOL     -0.210439
     91 C33        -5.9250   -6.9390    0.4990 ca        1 MOL      0.295552
     92 O14        -7.1080   -7.6650    0.6800 oh        1 MOL     -0.503117
     93 H37        -3.6470   -2.3780    0.7730 hn        1 MOL      0.257262
     94 H38        -1.8810   -4.1300    2.4340 h1        1 MOL      0.072235
     95 H39        -1.3500   -5.4500    0.4600 hc        1 MOL     -0.009633
     96 H40        -2.1120   -4.2770   -0.5350 hc        1 MOL     -0.009633
     97 H41        -4.4820   -4.3220   -1.1880 ha        1 MOL      0.118174
     98 H42        -2.9380   -6.8670    2.0470 ha        1 MOL      0.118174
     99 H43        -6.6750   -5.6040   -1.0000 ha        1 MOL      0.136286
    100 H44        -4.9470   -8.0700    2.0940 ha        1 MOL      0.136286
    101 H45        -7.0600   -8.1950    1.4800 ho        1 MOL      0.358415
    102 N10         0.1670   -2.9050    1.7650 n         1 MOL     -0.388436
    103 C34         1.5010   -2.2570    1.4630 c3        1 MOL     -0.140088
    104 C35         2.5720   -3.3100    1.0910 c         1 MOL      0.480962
    105 O15         2.6910   -4.4060    1.6360 o         1 MOL     -0.525258
    106 C36         1.9370   -1.2560    2.5820 c3        1 MOL      0.065697
    107 C37         2.3270   -1.8820    3.9130 c3        1 MOL     -0.261903
    108 C38         0.8890   -0.1800    2.7050 c3        1 MOL     -0.250676
    109 C39         2.8250   -0.8800    4.9310 c3        1 MOL     -0.157510
    110 H46         0.1890   -3.5440    2.5470 hn        1 MOL      0.258520
    111 H47         1.4700   -1.6940    0.5240 h1        1 MOL      0.197701
    112 H48         2.7920   -0.7390    2.1300 hc        1 MOL     -0.001074
    113 H49         3.1110   -2.5960    3.6740 hc        1 MOL      0.114510
    114 H50         1.4970   -2.4070    4.3770 hc        1 MOL      0.114510
    115 H51         0.0820   -0.4790    3.3780 hc        1 MOL      0.102546
    116 H52         1.3870    0.7030    3.1080 hc        1 MOL      0.102546
    117 H53         0.5730   -0.0160    1.6810 hc        1 MOL      0.102546
    118 H54         3.4050   -0.1290    4.3880 hc        1 MOL      0.055081
    119 H55         2.0470   -0.2970    5.4070 hc        1 MOL      0.055081
    120 H56         3.4270   -1.3720    5.6900 hc        1 MOL      0.055081
    121 N11         3.3480   -3.0210    0.0010 n         1 MOL     -0.167068
    122 C40         4.5040   -3.7350   -0.4530 c3        1 MOL     -0.077700
    123 C41         5.8070   -3.3430    0.1720 c         1 MOL      0.584145
    124 O16         5.8400   -2.2040    0.6730 o         1 MOL     -0.480310
    125 C42         4.5680   -3.6640   -2.0240 c3        1 MOL     -0.287441
    126 O17         4.6810   -2.3180   -2.3960 oh        1 MOL     -0.419230
    127 H57         3.2340   -2.1200   -0.4390 hn        1 MOL      0.172062
    128 H58         4.2460   -4.7660   -0.2240 h1        1 MOL      0.076945
    129 H59         3.7020   -4.1610   -2.4410 h1        1 MOL      0.151285
    130 H60         5.5060   -4.0940   -2.3920 h1        1 MOL      0.151285
    131 H61         3.9030   -2.1240   -2.9320 ho        1 MOL      0.395448
    132 N12         6.8550   -4.0150   -0.1930 n         1 MOL     -0.539237
    133 C43         8.2420   -3.6230   -0.0200 c3        1 MOL      0.202263
    134 C44         8.4410   -2.2090   -0.6070 c         1 MOL      0.507783
    135 O18         9.0640   -1.3520   -0.0160 o         1 MOL     -0.497181
    136 C45         9.1470   -4.7450   -0.5170 c3        1 MOL     -0.273783
    137 H62         6.7010   -4.7930   -0.8240 hn        1 MOL      0.308794
    138 H63         8.4760   -3.4390    1.0280 h1        1 MOL      0.068248
    139 H64         8.9800   -4.8650   -1.5810 hc        1 MOL      0.080933
    140 H65        10.2000   -4.5320   -0.3130 hc        1 MOL      0.080933
    141 H66         8.8080   -5.6780   -0.0790 hc        1 MOL      0.080933
    142 N13         7.8730   -2.0110   -1.8530 n         1 MOL     -0.457668
    143 C46         8.0400   -0.7620   -2.4810 c3        1 MOL      0.082234
    144 C47         7.2340    0.3160   -1.8770 c         1 MOL      0.383673
    145 O19         7.7600    1.4160   -1.6370 o         1 MOL     -0.560041
    146 C48         7.7600   -0.8850   -3.9560 c3        1 MOL     -0.194712
    147 H67         7.4660   -2.8110   -2.3300 hn        1 MOL      0.308923
    148 H68         9.1090   -0.5240   -2.4210 h1        1 MOL      0.098140
    149 H69         8.2800   -1.6610   -4.5240 hc        1 MOL      0.052651
    150 H70         6.6890   -0.9280   -4.1460 hc        1 MOL      0.052651
    151 H71         8.0380    0.0930   -4.3540 hc        1 MOL      0.052651
    152 N14         6.0410    0.1450   -1.3500 n         1 MOL      0.037879
    153 C49         5.2440    1.1180   -0.6240 c3        1 MOL     -0.229689
    154 C50         5.9680    1.4730    0.7380 c         1 MOL      0.493813
    155 O20         5.7920    2.6060    1.1810 o         1 MOL     -0.566640
    156 C51         3.7940    0.5720   -0.5130 c3        1 MOL      0.091461
    157 C52         3.0490    0.5400   -1.8610 c3        1 MOL     -0.032658
    158 C53         1.6960   -0.0450   -1.5490 c         1 MOL      0.696885
    159 O21         0.8310    0.7870   -1.0700 o         1 MOL     -0.766605
    160 O22         1.3350   -1.1660   -1.8640 o         1 MOL     -0.766605
    161 H72         5.6120   -0.7650   -1.4450 hn        1 MOL     -0.014166
    162 H73         5.2370    1.9880   -1.2850 h1        1 MOL      0.133127
    163 H74         3.1950    1.1950    0.1610 hc        1 MOL      0.050164
    164 H75         3.7840   -0.4520   -0.1340 hc        1 MOL      0.050164
    165 H76         3.5690   -0.0860   -2.5800 hc        1 MOL     -0.020056
    166 H77         3.0380    1.5380   -2.3030 hc        1 MOL     -0.020056
    167 N15         6.8380    0.6080    1.2400 n         1 MOL     -0.053129
    168 C54         7.5960    0.8270    2.4730 c3        1 MOL     -0.359989
    169 H78         7.1720    1.6740    3.0130 h1        1 MOL      0.126566
    170 H79         7.5400   -0.0650    3.0970 h1        1 MOL      0.126566
    171 H80         8.6380    1.0360    2.2280 h1        1 MOL      0.126566
    172 H81         6.9110   -0.3160    0.8450 hn        1 MOL      0.141123
    173 Ca1        -1.3490   -0.0960   -1.7260 Ca        1 MOL      1.738386
    174 O23        -1.0760   -2.6980   -2.9650 oh        1 MOL     -0.769583
    175 H82        -0.4590   -3.2820   -2.5170 ho        1 MOL      0.396600
    176 H83        -0.8290   -2.7520   -3.8860 ho        1 MOL      0.396600
    177 O24        -0.5470   -0.0430   -4.4220 oh        1 MOL     -0.769583
    178 H84         0.2630    0.4040   -4.6630 ho        1 MOL      0.396600
    179 H85        -1.0150   -0.1600   -5.2470 ho        1 MOL      0.396600
@<TRIPOS>BOND
     1    1    2 1   
     2    1    4 1   
     3    1    5 1   
     4    1    6 1   
     5    2    3 2   
     6    2    7 1   
     7    7    8 1   
     8    7   15 1   
     9    8    9 1   
    10    8   11 1   
    11    8   16 1   
    12    9   10 2   
    13    9   19 1   
    14   11   12 1   
    15   11   17 1   
    16   11   18 1   
    17   12   13 1   
    18   12   14 1   
    19   19   20 1   
    20   19   28 1   
    21   20   21 1   
    22   20   23 1   
    23   20   29 1   
    24   21   22 2   
    25   21   41 1   
    26   23   24 1   
    27   23   30 1   
    28   23   31 1   
    29   24   25 1   
    30   24   32 1   
    31   24   33 1   
    32   25   26 1   
    33   25   34 1   
    34   25   35 1   
    35   26   27 1   
    36   26   36 1   
    37   26   37 1   
    38   27   38 1   
    39   27   39 1   
    40   27   40 1   
    41   41   42 1   
    42   41   49 1   
    43   42   43 1   
    44   42   45 1   
    45   42   50 1   
    46   43   44 2   
    47   43   53 1   
    48   45   46 1   
    49   45   51 1   
    50   45   52 1   
    51   46   47 1   
    52   46   48 1   
    53   53   54 1   
    54   53   57 1   
    55   54   55 1   
    56   54   58 1   
    57   54   59 1   
    58   55   56 2   
    59   55   60 1   
    60   60   61 1   
    61   60   68 1   
    62   61   62 1   
    63   61   64 1   
    64   61   69 1   
    65   62   63 2   
    66   62   74 1   
    67   64   65 1   
    68   64   70 1   
    69   64   71 1   
    70   65   66 1   
    71   65   67 2   
    72   66   72 1   
    73   66   73 1   
    74   74   75 1   
    75   74   78 1   
    76   75   76 1   
    77   75   79 1   
    78   75   80 1   
    79   76   77 2   
    80   76   81 1   
    81   81   82 1   
    82   81   93 1   
    83   82   83 1   
    84   82   85 1   
    85   82   94 1   
    86   83   84 2   
    87   83  102 1   
    88   85   86 1   
    89   85   95 1   
    90   85   96 1   
    91   86   87 ar  
    92   86   88 ar  
    93   87   89 ar  
    94   87   97 1   
    95   88   90 ar  
    96   88   98 1   
    97   89   91 ar  
    98   89   99 1   
    99   90   91 ar  
   100   90  100 1   
   101   91   92 1   
   102   92  101 1   
   103  102  103 1   
   104  102  110 1   
   105  103  104 1   
   106  103  106 1   
   107  103  111 1   
   108  104  105 2   
   109  104  121 1   
   110  106  107 1   
   111  106  108 1   
   112  106  112 1   
   113  107  109 1   
   114  107  113 1   
   115  107  114 1   
   116  108  115 1   
   117  108  116 1   
   118  108  117 1   
   119  109  118 1   
   120  109  119 1   
   121  109  120 1   
   122  121  122 1   
   123  121  127 1   
   124  122  123 1   
   125  122  125 1   
   126  122  128 1   
   127  123  124 2   
   128  123  132 1   
   129  125  126 1   
   130  125  129 1   
   131  125  130 1   
   132  126  131 1   
   133  132  133 1   
   134  132  137 1   
   135  133  134 1   
   136  133  136 1   
   137  133  138 1   
   138  134  135 2   
   139  134  142 1   
   140  136  139 1   
   141  136  140 1   
   142  136  141 1   
   143  142  143 1   
   144  142  147 1   
   145  143  144 1   
   146  143  146 1   
   147  143  148 1   
   148  144  145 2   
   149  144  152 1   
   150  146  149 1   
   151  146  150 1   
   152  146  151 1   
   153  152  153 1   
   154  152  161 1   
   155  153  154 1   
   156  153  156 1   
   157  153  162 1   
   158  154  155 2   
   159  154  167 1   
   160  156  157 1   
   161  156  163 1   
   162  156  164 1   
   163  157  158 1   
   164  157  165 1   
   165  157  166 1   
   166  158  159 1   
   167  158  160 1   
   168  167  168 1   
   169  167  172 1   
   170  168  169 1   
   171  168  170 1   
   172  168  171 1   
   173  174  175 1   
   174  174  176 1   
   175  177  178 1   
   176  177  179 1   
@<TRIPOS>SUBSTRUCTURE
     1 MOL         1 TEMP              0 ****  ****    0 ROOT
