@<TRIPOS>MOLECULE
MOL
  183   181     1     0     0
SMALL
resp


@<TRIPOS>ATOM
      1 C1          0.9620   -1.4730    6.5160 c3        1 MOL     -0.324454
      2 C2          1.1730   -1.5880    4.9900 c         1 MOL      0.771191
      3 O1          0.3420   -1.9070    4.1660 o         1 MOL     -0.594140
      4 H1          0.3830   -0.5760    6.7360 hc        1 MOL      0.075821
      5 H2          0.4230   -2.3500    6.8760 hc        1 MOL      0.075821
      6 H3          1.9300   -1.4120    7.0140 hc        1 MOL      0.075821
      7 N1          2.4540   -1.3200    4.5520 n         1 MOL     -0.692474
      8 C3          2.8340   -1.4380    3.1160 c3        1 MOL      0.234905
      9 C4          3.1350   -2.9190    2.6630 c         1 MOL      0.555076
     10 O2          4.0240   -3.5090    3.2770 o         1 MOL     -0.599507
     11 C5          4.1760   -0.6310    3.0250 c3        1 MOL     -0.260090
     12 C6          4.8590   -0.6400    1.6620 c         1 MOL      0.693788
     13 O3          4.1890   -0.8710    0.6310 o         1 MOL     -0.614338
     14 O4          6.0990   -0.6990    1.6870 o         1 MOL     -0.614338
     15 H4          3.1470   -0.9980    5.2220 hn        1 MOL      0.336220
     16 H5          2.0920   -0.9580    2.4720 h1        1 MOL     -0.014830
     17 H6          4.9200   -1.1150    3.6550 hc        1 MOL      0.051114
     18 H7          4.0710    0.3650    3.4540 hc        1 MOL      0.051114
     19 N2          2.4830   -3.4410    1.6870 n         1 MOL     -0.216789
     20 C7          2.4690   -4.8450    1.1530 c3        1 MOL     -0.113578
     21 C8          3.5810   -5.1140    0.0840 c         1 MOL      0.468819
     22 O5          3.8900   -6.3030   -0.1300 o         1 MOL     -0.579176
     23 C9          1.1210   -5.3810    0.6510 c3        1 MOL      0.277823
     24 C10         0.5580   -4.6730   -0.5480 c3        1 MOL     -0.040195
     25 C11         0.2050   -5.3890    1.8760 c3        1 MOL     -0.306176
     26 C12         0.7610   -5.4550   -1.8000 c3        1 MOL     -0.316850
     27 H8          1.8840   -2.7520    1.2880 hn        1 MOL      0.162648
     28 H9          2.7390   -5.4600    2.0080 h1        1 MOL      0.093901
     29 H10         1.3550   -6.4310    0.4720 hc        1 MOL     -0.027659
     30 H11         0.8710   -3.6270   -0.6180 hc        1 MOL      0.076259
     31 H12        -0.5240   -4.5980   -0.4750 hc        1 MOL      0.076259
     32 H13        -0.7750   -5.7260    1.5320 hc        1 MOL      0.064035
     33 H14         0.6070   -6.0660    2.6340 hc        1 MOL      0.064035
     34 H15         0.1640   -4.3410    2.1860 hc        1 MOL      0.064035
     35 H16         0.0500   -6.2770   -1.8540 hc        1 MOL      0.073051
     36 H17         0.5230   -4.8560   -2.6690 hc        1 MOL      0.073051
     37 H18         1.7970   -5.8100   -1.8590 hc        1 MOL      0.073051
     38 N3          4.2440   -4.1680   -0.5190 n         1 MOL     -0.225116
     39 C13         5.0610   -4.2330   -1.7360 c3        1 MOL      0.022916
     40 C14         6.4320   -3.5380   -1.6150 c         1 MOL      0.415377
     41 O6          7.1600   -3.4190   -2.6240 o         1 MOL     -0.532658
     42 C15         4.2040   -3.7420   -2.9950 c3        1 MOL     -0.210547
     43 C16         3.6170   -2.4330   -2.6230 c         1 MOL      0.912126
     44 O7          4.2270   -1.3100   -2.4750 o         1 MOL     -0.803399
     45 O8          2.3680   -2.3760   -2.5360 o         1 MOL     -0.803399
     46 H19         3.9200   -3.2390   -0.2850 hn        1 MOL      0.027351
     47 H20         5.3020   -5.2900   -1.8360 h1        1 MOL      0.096356
     48 H21         3.5030   -4.5560   -3.1690 hc        1 MOL      0.065904
     49 H22         4.8870   -3.6200   -3.8390 hc        1 MOL      0.065904
     50 N4          6.6450   -2.8020   -0.5110 n         1 MOL     -0.363147
     51 C17         7.9470   -2.0390   -0.3690 c3        1 MOL     -0.111746
     52 C18         7.9880   -0.6580   -0.9820 c         1 MOL      0.531343
     53 O9          9.0530    0.0160   -0.9930 o         1 MOL     -0.616665
     54 H23         5.9720   -2.6510    0.2270 hn        1 MOL      0.300135
     55 H24         8.7560   -2.5580   -0.8840 h1        1 MOL      0.095193
     56 H25         8.2510   -2.0080    0.6770 h1        1 MOL      0.095193
     57 N5          6.8930   -0.0840   -1.5890 n         1 MOL     -0.320815
     58 C19         6.9430    1.3550   -1.9050 c3        1 MOL      0.004597
     59 C20         6.8590    2.2880   -0.7450 c         1 MOL      0.417266
     60 O10         7.1270    3.4990   -0.9530 o         1 MOL     -0.609987
     61 C21         5.9990    1.6860   -3.1410 c3        1 MOL     -0.341034
     62 C22         4.5910    1.9870   -2.7490 c         1 MOL      0.815366
     63 O11         3.8700    2.6550   -3.5530 o         1 MOL     -0.699035
     64 O12         4.1510    1.5010   -1.6470 o         1 MOL     -0.699035
     65 H26         6.0600   -0.6490   -1.6340 hn        1 MOL      0.286868
     66 H27         7.9390    1.5320   -2.3220 h1        1 MOL      0.124935
     67 H28         6.0980    0.8530   -3.8310 hc        1 MOL      0.097274
     68 H29         6.3890    2.4930   -3.7600 hc        1 MOL      0.097274
     69 N6          6.7190    1.9360    0.4670 n         1 MOL     -0.020300
     70 C23         6.6110    2.8060    1.5550 c3        1 MOL     -0.161913
     71 C24         5.3760    3.6840    1.6110 c         1 MOL      0.452727
     72 O13         5.2520    4.5580    2.4780 o         1 MOL     -0.558793
     73 H30         6.4570    0.9700    0.5780 hn        1 MOL      0.078417
     74 H31         7.5230    3.4020    1.5630 h1        1 MOL      0.090791
     75 H32         6.7010    2.1820    2.4490 h1        1 MOL      0.090791
     76 N7          4.4090    3.5240    0.6370 n         1 MOL     -0.137102
     77 C25         3.0960    4.1020    0.7020 c3        1 MOL      0.122877
     78 C26         2.0820    3.0740    0.9720 c         1 MOL      0.600476
     79 O14         2.2440    1.9060    0.7380 o         1 MOL     -0.642589
     80 C27         2.8160    5.0790   -0.4690 c3        1 MOL     -0.142630
     81 C28         3.8380    6.2070   -0.5460 c3        1 MOL      0.028372
     82 C29         3.2740    7.3610   -1.2420 c         1 MOL      0.561256
     83 N8          3.3210    7.3740   -2.5610 n         1 MOL     -0.756829
     84 O15         2.7980    8.3170   -0.6100 o         1 MOL     -0.590337
     85 H33         4.4120    2.7030    0.0500 hn        1 MOL      0.071319
     86 H34         3.0270    4.7750    1.5650 h1        1 MOL      0.014080
     87 H35         1.8550    5.6020   -0.4080 hc        1 MOL      0.049069
     88 H36         2.8950    4.6340   -1.4620 hc        1 MOL      0.049069
     89 H37         4.7740    5.9200   -1.0270 hc        1 MOL      0.021099
     90 H38         4.1160    6.4790    0.4740 hc        1 MOL      0.021099
     91 H39         3.5340    6.5630   -3.1240 hn        1 MOL      0.350494
     92 H40         2.7880    8.1480   -2.9480 hn        1 MOL      0.350494
     93 N9          0.8760    3.5130    1.3180 n         1 MOL     -0.539033
     94 C30        -0.2380    2.6210    1.6510 c3        1 MOL      0.105580
     95 C31        -1.3520    3.0930    0.6630 c         1 MOL      0.342140
     96 O16        -1.7310    4.2760    0.8030 o         1 MOL     -0.573735
     97 C32        -0.6470    2.6350    3.1540 c3        1 MOL      0.201940
     98 C33        -1.8050    1.7590    3.5210 c3        1 MOL     -0.291918
     99 C34         0.5840    2.0810    3.9370 c3        1 MOL     -0.291918
    100 H41         0.7820    4.5110    1.4860 hn        1 MOL      0.304841
    101 H42         0.0550    1.6100    1.3790 h1        1 MOL      0.143465
    102 H43        -0.8210    3.6710    3.4640 hc        1 MOL     -0.002847
    103 H44        -2.7340    2.1740    3.1270 hc        1 MOL      0.062275
    104 H45        -1.7130    0.7210    3.2160 hc        1 MOL      0.062275
    105 H46        -2.0320    1.7920    4.5860 hc        1 MOL      0.062275
    106 H47         0.7590    1.0270    3.7440 hc        1 MOL      0.062275
    107 H48         1.4780    2.6470    3.6610 hc        1 MOL      0.062275
    108 H49         0.3970    2.1180    5.0130 hc        1 MOL      0.062275
    109 N10        -1.8490    2.2490   -0.1770 n         1 MOL     -0.240297
    110 C35        -3.0620    2.5440   -1.0260 c3        1 MOL      0.222933
    111 C36        -4.3070    1.8920   -0.4410 c         1 MOL      0.339540
    112 O17        -4.1950    1.1120    0.4900 o         1 MOL     -0.293528
    113 C37        -2.8280    2.2650   -2.5210 c3        1 MOL     -0.461609
    114 C38        -3.2430    0.7880   -2.8750 c         1 MOL      0.724120
    115 N11        -2.4790   -0.1710   -2.4380 n         1 MOL     -0.812604
    116 O18        -4.3320    0.6010   -3.4160 o         1 MOL     -0.603397
    117 H50        -1.3770    1.3710   -0.2960 hn        1 MOL      0.203065
    118 H51        -3.2390    3.6250   -0.9920 h1        1 MOL      0.053305
    119 H52        -1.7810    2.3570   -2.8000 hc        1 MOL      0.136704
    120 H53        -3.4010    2.9290   -3.1700 hc        1 MOL      0.136704
    121 H54        -1.6710    0.0190   -1.8600 hn        1 MOL      0.395253
    122 H55        -2.7840   -1.1320   -2.5060 hn        1 MOL      0.395253
    123 N12        -5.5280    2.2240   -0.8920 n         1 MOL     -0.602822
    124 C39        -6.7880    1.6670   -0.4210 c3        1 MOL      0.343028
    125 C40        -6.8770    0.1610   -0.2760 c         1 MOL      0.661830
    126 O19        -7.4840   -0.3820    0.6350 o         1 MOL     -0.545519
    127 C41        -7.9590    2.2370   -1.2540 c3        1 MOL     -0.254671
    128 C42        -9.2490    2.0220   -0.4680 ca        1 MOL      0.279260
    129 C43        -9.3660    2.4640    0.8270 ca        1 MOL     -0.358120
    130 C44       -10.3450    1.4370   -1.0490 ca        1 MOL     -0.358120
    131 C45       -10.5050    2.0890    1.5930 ca        1 MOL     -0.101669
    132 C46       -11.4790    1.0740   -0.3680 ca        1 MOL     -0.101669
    133 C47       -11.6040    1.4250    0.9920 ca        1 MOL      0.224127
    134 O20       -12.8100    1.1930    1.6820 oh        1 MOL     -0.525335
    135 H56        -5.5940    2.8390   -1.6830 hn        1 MOL      0.309680
    136 H57        -6.9170    2.1020    0.5680 h1        1 MOL      0.024343
    137 H58        -8.0060    1.7020   -2.2050 hc        1 MOL      0.073198
    138 H59        -7.8750    3.3120   -1.4000 hc        1 MOL      0.073198
    139 H60        -8.5830    3.0560    1.2680 ha        1 MOL      0.169825
    140 H61       -10.2650    1.1550   -2.0930 ha        1 MOL      0.169825
    141 H62       -10.5720    2.5380    2.5790 ha        1 MOL      0.109647
    142 H63       -12.3730    0.6340   -0.7970 ha        1 MOL      0.109647
    143 H64       -13.5140    0.8400    1.1320 ho        1 MOL      0.373688
    144 N13        -6.1700   -0.6060   -1.1750 n         1 MOL     -0.628414
    145 C48        -6.2060   -2.0850   -1.1650 c3        1 MOL      0.080650
    146 C49        -5.4330   -2.6520    0.0020 c         1 MOL      0.369214
    147 O21        -5.6140   -3.7870    0.4080 o         1 MOL     -0.538817
    148 C50        -5.7210   -2.6170   -2.5260 c3        1 MOL     -0.116218
    149 C51        -6.8300   -2.2460   -3.6010 c3        1 MOL     -0.203177
    150 C52        -6.4570   -2.6560   -5.0220 c         1 MOL      0.762947
    151 O22        -6.6220   -3.8360   -5.3170 o         1 MOL     -0.757069
    152 O23        -6.2840   -1.8230   -5.9250 o         1 MOL     -0.757069
    153 H65        -5.6140   -0.1780   -1.8930 hn        1 MOL      0.358703
    154 H66        -7.2460   -2.3850   -0.9850 h1        1 MOL      0.099449
    155 H67        -5.6430   -3.6940   -2.4400 hc        1 MOL      0.053399
    156 H68        -4.7070   -2.3030   -2.7960 hc        1 MOL      0.053399
    157 H69        -6.9050   -1.1620   -3.6370 hc        1 MOL      0.032713
    158 H70        -7.7760   -2.6830   -3.3130 hc        1 MOL      0.032713
    159 N14        -4.6350   -1.7840    0.6270 n         1 MOL     -0.005560
    160 C53        -3.7310   -2.1060    1.8030 c3        1 MOL     -0.186288
    161 C54        -4.3540   -1.6060    3.1180 c         1 MOL      0.536342
    162 O24        -4.3180   -2.1880    4.1850 o         1 MOL     -0.572711
    163 C55        -2.2710   -1.4610    1.5920 c3        1 MOL      0.093502
    164 C56        -1.5110   -1.9050    0.4040 c3        1 MOL      0.098425
    165 C57        -0.3160   -1.0120    0.1340 c         1 MOL      0.604733
    166 O25         0.7970   -1.4060    0.5300 o         1 MOL     -0.669397
    167 O26        -0.4370   -0.0280   -0.6900 o         1 MOL     -0.669397
    168 H71        -4.6740   -0.8610    0.2140 hn        1 MOL      0.051615
    169 H72        -3.6970   -3.1670    2.0490 h1        1 MOL      0.089165
    170 H73        -1.7510   -1.5840    2.5420 hc        1 MOL      0.022637
    171 H74        -2.4740   -0.3930    1.5220 hc        1 MOL      0.022637
    172 H75        -2.1310   -1.9110   -0.4970 hc        1 MOL     -0.069193
    173 H76        -1.2220   -2.9350    0.5930 hc        1 MOL     -0.069193
    174 N15        -4.9280   -0.4370    2.9450 n         1 MOL     -0.019750
    175 C58        -5.7240    0.1790    3.9990 c3        1 MOL     -0.403519
    176 H77        -5.8150    1.2480    3.8060 h1        1 MOL      0.127262
    177 H78        -6.7160   -0.2720    4.0170 h1        1 MOL      0.127262
    178 H79        -5.2360    0.0250    4.9620 h1        1 MOL      0.127262
    179 H80        -5.0990   -0.1450    1.9950 hn        1 MOL      0.002722
    180 Ca1         2.4260   -0.1290   -0.9910 Ca        1 MOL      1.730092
    181 O27         1.4360    1.4550   -2.8110 oh        1 MOL     -0.974412
    182 H81         1.9900    2.1410   -3.1840 ho        1 MOL      0.436194
    183 H82         0.7160    1.3710   -3.4400 ho        1 MOL      0.436194
@<TRIPOS>BOND
     1    1    2 1   
     2    1    4 1   
     3    1    5 1   
     4    1    6 1   
     5    2    3 2   
     6    2    7 1   
     7    7    8 1   
     8    7   15 1   
     9    8    9 1   
    10    8   11 1   
    11    8   16 1   
    12    9   10 2   
    13    9   19 1   
    14   11   12 1   
    15   11   17 1   
    16   11   18 1   
    17   12   13 1   
    18   12   14 1   
    19   19   20 1   
    20   19   27 1   
    21   20   21 1   
    22   20   23 1   
    23   20   28 1   
    24   21   22 2   
    25   21   38 1   
    26   23   24 1   
    27   23   25 1   
    28   23   29 1   
    29   24   26 1   
    30   24   30 1   
    31   24   31 1   
    32   25   32 1   
    33   25   33 1   
    34   25   34 1   
    35   26   35 1   
    36   26   36 1   
    37   26   37 1   
    38   38   39 1   
    39   38   46 1   
    40   39   40 1   
    41   39   42 1   
    42   39   47 1   
    43   40   41 2   
    44   40   50 1   
    45   42   43 1   
    46   42   48 1   
    47   42   49 1   
    48   43   44 1   
    49   43   45 1   
    50   50   51 1   
    51   50   54 1   
    52   51   52 1   
    53   51   55 1   
    54   51   56 1   
    55   52   53 2   
    56   52   57 1   
    57   57   58 1   
    58   57   65 1   
    59   58   59 1   
    60   58   61 1   
    61   58   66 1   
    62   59   60 2   
    63   59   69 1   
    64   61   62 1   
    65   61   67 1   
    66   61   68 1   
    67   62   63 1   
    68   62   64 1   
    69   69   70 1   
    70   69   73 1   
    71   70   71 1   
    72   70   74 1   
    73   70   75 1   
    74   71   72 2   
    75   71   76 1   
    76   76   77 1   
    77   76   85 1   
    78   77   78 1   
    79   77   80 1   
    80   77   86 1   
    81   78   79 2   
    82   78   93 1   
    83   80   81 1   
    84   80   87 1   
    85   80   88 1   
    86   81   82 1   
    87   81   89 1   
    88   81   90 1   
    89   82   83 1   
    90   82   84 2   
    91   83   91 1   
    92   83   92 1   
    93   93   94 1   
    94   93  100 1   
    95   94   95 1   
    96   94   97 1   
    97   94  101 1   
    98   95   96 2   
    99   95  109 1   
   100   97   98 1   
   101   97   99 1   
   102   97  102 1   
   103   98  103 1   
   104   98  104 1   
   105   98  105 1   
   106   99  106 1   
   107   99  107 1   
   108   99  108 1   
   109  109  110 1   
   110  109  117 1   
   111  110  111 1   
   112  110  113 1   
   113  110  118 1   
   114  111  112 2   
   115  111  123 1   
   116  113  114 1   
   117  113  119 1   
   118  113  120 1   
   119  114  115 1   
   120  114  116 2   
   121  115  121 1   
   122  115  122 1   
   123  123  124 1   
   124  123  135 1   
   125  124  125 1   
   126  124  127 1   
   127  124  136 1   
   128  125  126 2   
   129  125  144 1   
   130  127  128 1   
   131  127  137 1   
   132  127  138 1   
   133  128  129 ar  
   134  128  130 ar  
   135  129  131 ar  
   136  129  139 1   
   137  130  132 ar  
   138  130  140 1   
   139  131  133 ar  
   140  131  141 1   
   141  132  133 ar  
   142  132  142 1   
   143  133  134 1   
   144  134  143 1   
   145  144  145 1   
   146  144  153 1   
   147  145  146 1   
   148  145  148 1   
   149  145  154 1   
   150  146  147 2   
   151  146  159 1   
   152  148  149 1   
   153  148  155 1   
   154  148  156 1   
   155  149  150 1   
   156  149  157 1   
   157  149  158 1   
   158  150  151 1   
   159  150  152 1   
   160  159  160 1   
   161  159  168 1   
   162  160  161 1   
   163  160  163 1   
   164  160  169 1   
   165  161  162 2   
   166  161  174 1   
   167  163  164 1   
   168  163  170 1   
   169  163  171 1   
   170  164  165 1   
   171  164  172 1   
   172  164  173 1   
   173  165  166 1   
   174  165  167 1   
   175  174  175 1   
   176  174  179 1   
   177  175  176 1   
   178  175  177 1   
   179  175  178 1   
   180  181  182 1   
   181  181  183 1   
@<TRIPOS>SUBSTRUCTURE
     1 MOL         1 TEMP              0 ****  ****    0 ROOT
