@<TRIPOS>MOLECULE
MOL
  189   185     1     0     0
SMALL
resp


@<TRIPOS>ATOM
      1 C1          0.1030    3.2440   -5.1870 c3        1 MOL     -0.515425
      2 C2          0.6010    2.9760   -3.8210 c         1 MOL      0.779634
      3 O1         -0.0290    3.4360   -2.9060 o         1 MOL     -0.606819
      4 H1         -0.7240    2.5700   -5.4100 hc        1 MOL      0.129734
      5 H2         -0.2410    4.2760   -5.2530 hc        1 MOL      0.129734
      6 H3          0.9070    3.0810   -5.9050 hc        1 MOL      0.129734
      7 N1          1.7210    2.2850   -3.6610 n         1 MOL     -0.570009
      8 C3          2.2880    1.9050   -2.3540 c3        1 MOL      0.118786
      9 C4          2.9500    3.1050   -1.6840 c         1 MOL      0.349312
     10 O2          3.8890    3.6910   -2.1730 o         1 MOL     -0.507484
     11 C5          3.3350    0.7700   -2.6380 c3        1 MOL     -0.428021
     12 C6          4.1180    0.3470   -1.3560 c         1 MOL      0.871627
     13 O3          3.5740    0.4480   -0.2870 o         1 MOL     -0.727201
     14 O4          5.1580   -0.3140   -1.4930 o         1 MOL     -0.727201
     15 H4          2.2640    2.0590   -4.4860 hn        1 MOL      0.328219
     16 H5          1.4590    1.5420   -1.7400 h1        1 MOL      0.052626
     17 H6          4.0410    1.1030   -3.4000 hc        1 MOL      0.109167
     18 H7          2.9210   -0.2040   -2.8980 hc        1 MOL      0.109167
     19 N2          2.4230    3.5290   -0.4950 n         1 MOL     -0.023179
     20 C7          2.6820    4.8420    0.2030 c3        1 MOL     -0.136075
     21 C8          3.7410    4.6500    1.2470 c         1 MOL      0.477008
     22 O5          4.5210    5.5840    1.4600 o         1 MOL     -0.541251
     23 C9          1.4000    5.2320    0.8900 c3        1 MOL     -0.145733
     24 C10         0.2860    5.7740    0.0100 c3        1 MOL      0.137992
     25 C11         0.5710    7.1720   -0.4950 c3        1 MOL     -0.108484
     26 C12        -0.4160    7.8370   -1.5010 c3        1 MOL      0.077831
     27 N3          0.2090    8.9390   -2.2050 n4        1 MOL     -0.305059
     28 H8          1.5330    3.1070   -0.2960 hn        1 MOL      0.228429
     29 H9          3.0530    5.5730   -0.5210 h1        1 MOL      0.092671
     30 H10         1.5900    6.0060    1.6310 hc        1 MOL      0.054421
     31 H11         1.0140    4.3460    1.3890 hc        1 MOL      0.054421
     32 H12        -0.6350    5.8810    0.5990 hc        1 MOL      0.000895
     33 H13         0.1700    5.0820   -0.8210 hc        1 MOL      0.000895
     34 H14         1.5860    7.1740   -0.9040 hc        1 MOL      0.040278
     35 H15         0.5970    7.7760    0.4130 hc        1 MOL      0.040278
     36 H16        -1.2280    8.1910   -0.8590 hx        1 MOL      0.067528
     37 H17        -0.8030    7.0930   -2.1900 hx        1 MOL      0.067528
     38 H18         0.4730    9.6720   -1.5520 hn        1 MOL      0.313644
     39 H19         1.0560    8.5900   -2.6370 hn        1 MOL      0.313644
     40 H20        -0.4140    9.3880   -2.8650 hn        1 MOL      0.313644
     41 N4          3.7410    3.4700    1.9590 n         1 MOL     -0.244954
     42 C13         4.8560    3.1750    2.8220 c3        1 MOL     -0.001218
     43 C14         6.0410    2.3350    2.3470 c         1 MOL      0.411995
     44 O6          7.0670    2.2100    3.0270 o         1 MOL     -0.538625
     45 C15         4.2160    2.5700    4.1210 c3        1 MOL     -0.160624
     46 C16         3.4700    1.2700    3.9870 c         1 MOL      0.789905
     47 O7          2.9510    0.8360    5.0040 o         1 MOL     -0.702956
     48 O8          3.4600    0.6240    2.9070 o         1 MOL     -0.702956
     49 H21         3.1620    2.7260    1.5890 hn        1 MOL      0.082631
     50 H22         5.3140    4.1360    3.0500 h1        1 MOL      0.092922
     51 H23         3.5120    3.2750    4.5770 hc        1 MOL      0.039144
     52 H24         4.9820    2.4730    4.8860 hc        1 MOL      0.039144
     53 N5          5.9160    1.6550    1.1740 n         1 MOL     -0.081061
     54 C17         7.0840    1.2360    0.4610 c3        1 MOL     -0.347759
     55 C18         7.3380   -0.1990    0.7120 c         1 MOL      0.665398
     56 O9          8.3960   -0.6680    0.3440 o         1 MOL     -0.602497
     57 H25         4.9950    1.6000    0.7630 hn        1 MOL      0.143149
     58 H26         7.9380    1.8070    0.8250 h1        1 MOL      0.147781
     59 H27         6.9360    1.4670   -0.5880 h1        1 MOL      0.147781
     60 N6          6.5660   -0.9030    1.5390 n         1 MOL     -0.337514
     61 C19         6.7770   -2.3370    1.9390 c3        1 MOL     -0.022574
     62 C20         6.7940   -3.3560    0.7380 c         1 MOL      0.380042
     63 O10         7.1320   -4.5440    0.8720 o         1 MOL     -0.517430
     64 C21         5.6700   -2.6110    2.9570 c3        1 MOL     -0.320421
     65 C22         4.2410   -2.4450    2.4240 c         1 MOL      0.754208
     66 O11         3.9890   -2.3970    1.1910 o         1 MOL     -0.709770
     67 O12         3.2470   -2.5500    3.1640 o         1 MOL     -0.709770
     68 H28         5.6800   -0.4610    1.7080 hn        1 MOL      0.197688
     69 H29         7.7530   -2.3450    2.4270 h1        1 MOL      0.124653
     70 H30         5.7230   -1.9220    3.7990 hc        1 MOL      0.117470
     71 H31         5.8210   -3.6150    3.3590 hc        1 MOL      0.117470
     72 N7          6.4330   -2.9010   -0.4860 n         1 MOL     -0.098464
     73 C23         6.3420   -3.6380   -1.7000 c3        1 MOL     -0.204237
     74 C24         4.9560   -4.2570   -1.9920 c         1 MOL      0.595761
     75 O13         4.8970   -5.3570   -2.5510 o         1 MOL     -0.578933
     76 H32         5.9820   -2.0040   -0.4440 hn        1 MOL      0.217635
     77 H33         7.1270   -4.3950   -1.7630 h1        1 MOL      0.094091
     78 H34         6.5560   -2.8960   -2.4700 h1        1 MOL      0.094091
     79 N8          3.9350   -3.6250   -1.5030 n         1 MOL     -0.434899
     80 C25         2.5900   -4.1360   -1.4600 c3        1 MOL     -0.048151
     81 C26         1.5330   -3.1220   -1.5020 c         1 MOL      0.635870
     82 O14         1.6080   -2.1000   -0.7970 o         1 MOL     -0.638705
     83 C27         2.2950   -5.0160   -0.2410 c3        1 MOL      0.693778
     84 C28         2.3100   -6.4860   -0.3610 c3        1 MOL     -0.331073
     85 O15         3.0570   -4.7380    0.8510 oh        1 MOL     -0.734442
     86 H35         4.1340   -2.7210   -1.0930 hn        1 MOL      0.278720
     87 H36         2.3900   -4.8080   -2.3090 h1        1 MOL      0.029151
     88 H37         1.2540   -4.7720   -0.0410 h1        1 MOL     -0.103854
     89 H38         3.4530   -3.8670    0.7750 ho        1 MOL      0.542426
     90 H39         1.8500   -6.9150    0.5320 hc        1 MOL      0.059978
     91 H40         1.6130   -6.8060   -1.1460 hc        1 MOL      0.059978
     92 H41         3.2830   -6.8830   -0.6090 hc        1 MOL      0.059978
     93 N9          0.3970   -3.3770   -2.0920 n         1 MOL     -0.565131
     94 C29        -0.6980   -2.4070   -2.1970 c3        1 MOL      0.062508
     95 C30        -1.8980   -2.9560   -1.4980 c         1 MOL      0.523358
     96 O16        -2.3100   -4.0610   -1.8590 o         1 MOL     -0.554151
     97 C31        -0.9880   -1.9660   -3.6730 c3        1 MOL      0.139621
     98 C32         0.2410   -1.5440   -4.4870 c3        1 MOL      0.217581
     99 C33        -2.0110   -0.9220   -3.8300 c3        1 MOL     -0.384815
    100 C34        -0.1290   -1.6650   -5.9440 c3        1 MOL     -0.251716
    101 H42         0.2740   -4.3030   -2.4810 hn        1 MOL      0.295229
    102 H43        -0.3420   -1.4660   -1.7840 h1        1 MOL      0.099104
    103 H44        -1.3760   -2.8510   -4.1840 hc        1 MOL     -0.005851
    104 H45         1.0840   -2.2230   -4.4010 hc        1 MOL     -0.044610
    105 H46         0.5900   -0.5420   -4.2090 hc        1 MOL     -0.044610
    106 H47        -2.7750   -1.0200   -3.0520 hc        1 MOL      0.084280
    107 H48        -1.6100    0.0800   -3.7070 hc        1 MOL      0.084280
    108 H49        -2.5320   -0.9670   -4.7870 hc        1 MOL      0.084280
    109 H50        -0.6700   -2.5610   -6.2570 hc        1 MOL      0.052847
    110 H51        -0.7510   -0.8170   -6.2610 hc        1 MOL      0.052847
    111 H52         0.7630   -1.4710   -6.5450 hc        1 MOL      0.052847
    112 N10        -2.5210   -2.2440   -0.5460 n         1 MOL     -0.192040
    113 C35        -3.7590   -2.6600    0.1100 c3        1 MOL      0.010764
    114 C36        -5.0480   -2.3610   -0.7080 c         1 MOL      0.539115
    115 O17        -5.0510   -1.6140   -1.6750 o         1 MOL     -0.441371
    116 C37        -3.8570   -2.1570    1.5290 c3        1 MOL      0.046903
    117 C38        -2.6280   -2.4950    2.4330 c3        1 MOL     -0.500494
    118 O18        -3.9830   -0.7840    1.5440 oh        1 MOL     -0.215405
    119 H53        -2.1930   -1.3300   -0.2750 hn        1 MOL      0.105548
    120 H54        -3.8810   -3.7480    0.1440 h1        1 MOL      0.058866
    121 H55        -4.7360   -2.5180    2.0760 h1        1 MOL      0.022441
    122 H56        -3.4280   -0.4820    2.2580 ho        1 MOL      0.310966
    123 H57        -1.7700   -2.0300    1.9660 hc        1 MOL      0.161116
    124 H58        -2.8180   -2.1490    3.4490 hc        1 MOL      0.161116
    125 H59        -2.4620   -3.5770    2.4630 hc        1 MOL      0.161116
    126 N11        -6.2000   -2.9050   -0.2320 n         1 MOL     -0.568874
    127 C39        -7.5090   -2.3620   -0.6530 c3        1 MOL      0.002828
    128 C40        -7.6840   -0.9060   -0.3650 c         1 MOL      0.305173
    129 O19        -8.5570   -0.3370   -0.9750 o         1 MOL     -0.520702
    130 C41        -8.6260   -3.1480    0.0500 c3        1 MOL      0.270923
    131 C42        -8.6370   -4.7000   -0.2470 c3        1 MOL     -0.443887
    132 O20        -8.6070   -3.0300    1.4630 oh        1 MOL     -0.619279
    133 H60        -6.1210   -3.5670    0.5280 hn        1 MOL      0.343424
    134 H61        -7.6420   -2.4180   -1.7310 h1        1 MOL      0.138462
    135 H62        -9.5830   -2.7650   -0.3170 h1        1 MOL      0.026697
    136 H63        -9.4530   -2.6450    1.7030 ho        1 MOL      0.405882
    137 H64        -9.4290   -5.2150    0.2990 hc        1 MOL      0.135018
    138 H65        -8.8150   -4.8370   -1.3080 hc        1 MOL      0.135018
    139 H66        -7.7370   -5.2230    0.0750 hc        1 MOL      0.135018
    140 N12        -6.8680   -0.3160    0.4740 n         1 MOL     -0.010705
    141 C43        -6.9100    1.1280    0.8680 c3        1 MOL      0.107910
    142 C44        -5.9190    2.0210    0.0820 c         1 MOL      0.354743
    143 O21        -6.3970    2.9590   -0.5700 o         1 MOL     -0.519888
    144 C45        -6.7350    1.2710    2.4000 c3        1 MOL     -0.020870
    145 C46        -8.1160    0.9790    2.9680 c3        1 MOL     -0.257812
    146 C47        -8.0560    1.0660    4.5260 c3        1 MOL     -0.010699
    147 C48        -9.4340    0.7950    4.9630 c3        1 MOL      0.117172
    148 N13        -9.5520    0.8650    6.4460 n4        1 MOL     -0.274457
    149 H67        -6.2660   -0.9130    1.0260 hn        1 MOL      0.117766
    150 H68        -7.8990    1.5140    0.6310 h1        1 MOL      0.035095
    151 H69        -6.4870    2.3140    2.5950 hc        1 MOL      0.023698
    152 H70        -6.0150    0.5660    2.7960 hc        1 MOL      0.023698
    153 H71        -8.4260   -0.0090    2.6210 hc        1 MOL      0.104222
    154 H72        -8.8010    1.7590    2.6410 hc        1 MOL      0.104222
    155 H73        -7.7030    2.0410    4.8420 hc        1 MOL      0.037676
    156 H74        -7.4360    0.3260    5.0410 hc        1 MOL      0.037676
    157 H75        -9.8260   -0.1440    4.5690 hx        1 MOL      0.048199
    158 H76       -10.0260    1.5650    4.4860 hx        1 MOL      0.048199
    159 H77        -9.3170   -0.0490    6.8200 hn        1 MOL      0.265081
    160 H78        -8.9310    1.5670    6.8140 hn        1 MOL      0.265081
    161 H79       -10.4830    1.0650    6.8040 hn        1 MOL      0.265081
    162 N14        -4.7010    1.5310   -0.1140 n         1 MOL     -0.104766
    163 C49        -3.7580    2.1590   -1.1180 c3        1 MOL     -0.139698
    164 C50        -4.1730    2.0660   -2.6030 c         1 MOL      0.452973
    165 O22        -3.6240    2.8200   -3.4370 o         1 MOL     -0.550028
    166 C51        -2.3320    1.5720   -0.9560 c3        1 MOL     -0.002853
    167 C52        -1.7030    1.9620    0.3900 c3        1 MOL      0.029093
    168 C53        -0.4490    1.0770    0.6800 c         1 MOL      0.498990
    169 O23        -0.4410   -0.0960    0.2960 o         1 MOL     -0.660932
    170 O24         0.6540    1.6090    0.9780 o         1 MOL     -0.660932
    171 H80        -4.4110    0.7020    0.3850 hn        1 MOL     -0.040174
    172 H81        -3.7130    3.2260   -0.9230 h1        1 MOL      0.094360
    173 H82        -1.7330    1.8930   -1.8080 hc        1 MOL      0.099708
    174 H83        -2.4020    0.4960   -1.0550 hc        1 MOL      0.099708
    175 H84        -2.5210    1.8870    1.1000 hc        1 MOL     -0.034669
    176 H85        -1.4100    3.0120    0.4000 hc        1 MOL     -0.034669
    177 N15        -5.0370    1.0920   -2.9370 n         1 MOL     -0.134619
    178 C54        -5.7250    1.0190   -4.2600 c3        1 MOL     -0.248961
    179 H86        -6.0240   -0.0100   -4.4560 h1        1 MOL      0.105269
    180 H87        -6.6080    1.6580   -4.2460 h1        1 MOL      0.105269
    181 H88        -5.0450    1.3550   -5.0420 h1        1 MOL      0.105269
    182 H89        -5.3010    0.4830   -2.1680 hn        1 MOL      0.222134
    183 Ca1         1.9490   -0.6230    1.3160 Ca        1 MOL      1.717943
    184 O25         0.7840   -3.1680    1.9570 oh        1 MOL     -0.855554
    185 H90         0.3340   -3.2590    2.7980 ho        1 MOL      0.393127
    186 H91         1.5620   -3.7090    2.0370 ho        1 MOL      0.393127
    187 O26         0.7060   -0.3030    3.5930 oh        1 MOL     -0.855554
    188 H92         0.1170   -0.8210    4.1470 ho        1 MOL      0.393127
    189 H93         1.3520    0.0630    4.2010 ho        1 MOL      0.393127
@<TRIPOS>BOND
     1    1    2 1   
     2    1    4 1   
     3    1    5 1   
     4    1    6 1   
     5    2    3 2   
     6    2    7 1   
     7    7    8 1   
     8    7   15 1   
     9    8    9 1   
    10    8   11 1   
    11    8   16 1   
    12    9   10 2   
    13    9   19 1   
    14   11   12 1   
    15   11   17 1   
    16   11   18 1   
    17   12   13 1   
    18   12   14 1   
    19   19   20 1   
    20   19   28 1   
    21   20   21 1   
    22   20   23 1   
    23   20   29 1   
    24   21   22 2   
    25   21   41 1   
    26   23   24 1   
    27   23   30 1   
    28   23   31 1   
    29   24   25 1   
    30   24   32 1   
    31   24   33 1   
    32   25   26 1   
    33   25   34 1   
    34   25   35 1   
    35   26   27 1   
    36   26   36 1   
    37   26   37 1   
    38   27   38 1   
    39   27   39 1   
    40   27   40 1   
    41   41   42 1   
    42   41   49 1   
    43   42   43 1   
    44   42   45 1   
    45   42   50 1   
    46   43   44 2   
    47   43   53 1   
    48   45   46 1   
    49   45   51 1   
    50   45   52 1   
    51   46   47 1   
    52   46   48 1   
    53   53   54 1   
    54   53   57 1   
    55   54   55 1   
    56   54   58 1   
    57   54   59 1   
    58   55   56 2   
    59   55   60 1   
    60   60   61 1   
    61   60   68 1   
    62   61   62 1   
    63   61   64 1   
    64   61   69 1   
    65   62   63 2   
    66   62   72 1   
    67   64   65 1   
    68   64   70 1   
    69   64   71 1   
    70   65   66 1   
    71   65   67 1   
    72   72   73 1   
    73   72   76 1   
    74   73   74 1   
    75   73   77 1   
    76   73   78 1   
    77   74   75 2   
    78   74   79 1   
    79   79   80 1   
    80   79   86 1   
    81   80   81 1   
    82   80   83 1   
    83   80   87 1   
    84   81   82 2   
    85   81   93 1   
    86   83   84 1   
    87   83   85 1   
    88   83   88 1   
    89   84   90 1   
    90   84   91 1   
    91   84   92 1   
    92   85   89 1   
    93   93   94 1   
    94   93  101 1   
    95   94   95 1   
    96   94   97 1   
    97   94  102 1   
    98   95   96 2   
    99   95  112 1   
   100   97   98 1   
   101   97   99 1   
   102   97  103 1   
   103   98  100 1   
   104   98  104 1   
   105   98  105 1   
   106   99  106 1   
   107   99  107 1   
   108   99  108 1   
   109  100  109 1   
   110  100  110 1   
   111  100  111 1   
   112  112  113 1   
   113  112  119 1   
   114  113  114 1   
   115  113  116 1   
   116  113  120 1   
   117  114  115 2   
   118  114  126 1   
   119  116  117 1   
   120  116  118 1   
   121  116  121 1   
   122  117  123 1   
   123  117  124 1   
   124  117  125 1   
   125  118  122 1   
   126  126  127 1   
   127  126  133 1   
   128  127  128 1   
   129  127  130 1   
   130  127  134 1   
   131  128  129 2   
   132  128  140 1   
   133  130  131 1   
   134  130  132 1   
   135  130  135 1   
   136  131  137 1   
   137  131  138 1   
   138  131  139 1   
   139  132  136 1   
   140  140  141 1   
   141  140  149 1   
   142  141  142 1   
   143  141  144 1   
   144  141  150 1   
   145  142  143 2   
   146  142  162 1   
   147  144  145 1   
   148  144  151 1   
   149  144  152 1   
   150  145  146 1   
   151  145  153 1   
   152  145  154 1   
   153  146  147 1   
   154  146  155 1   
   155  146  156 1   
   156  147  148 1   
   157  147  157 1   
   158  147  158 1   
   159  148  159 1   
   160  148  160 1   
   161  148  161 1   
   162  162  163 1   
   163  162  171 1   
   164  163  164 1   
   165  163  166 1   
   166  163  172 1   
   167  164  165 2   
   168  164  177 1   
   169  166  167 1   
   170  166  173 1   
   171  166  174 1   
   172  167  168 1   
   173  167  175 1   
   174  167  176 1   
   175  168  169 1   
   176  168  170 1   
   177  177  178 1   
   178  177  182 1   
   179  178  179 1   
   180  178  180 1   
   181  178  181 1   
   182  184  185 1   
   183  184  186 1   
   184  187  188 1   
   185  187  189 1   
@<TRIPOS>SUBSTRUCTURE
     1 MOL         1 TEMP              0 ****  ****    0 ROOT
