@<TRIPOS>MOLECULE
MOL
  183   181     1     0     0
SMALL
resp


@<TRIPOS>ATOM
      1 C1          0.5410   -2.1380    6.1810 c3        1 MOL     -0.179501
      2 C2          0.9600   -2.2120    4.6920 c         1 MOL      0.757296
      3 O1          0.2030   -2.7430    3.9200 o         1 MOL     -0.609900
      4 H1          1.0890   -2.8880    6.7500 hc        1 MOL      0.028161
      5 H2          0.7670   -1.1470    6.5750 hc        1 MOL      0.028161
      6 H3         -0.5290   -2.3280    6.2680 hc        1 MOL      0.028161
      7 N1          2.1280   -1.6900    4.3500 n         1 MOL     -0.563831
      8 C3          2.7910   -1.7510    3.0470 c3        1 MOL      0.084151
      9 C4          3.3220   -3.1090    2.6540 c         1 MOL      0.580096
     10 O2          4.1190   -3.6330    3.3650 o         1 MOL     -0.571885
     11 C5          3.8440   -0.6340    3.0920 c3        1 MOL     -0.360195
     12 C6          4.6390   -0.5050    1.7880 c         1 MOL      0.888409
     13 O3          5.8800   -0.4540    1.9450 o         1 MOL     -0.713273
     14 O4          4.0590   -0.4580    0.7060 o         1 MOL     -0.713273
     15 H4          2.6000   -1.2010    5.1000 hn        1 MOL      0.299709
     16 H5          2.0210   -1.4100    2.3430 h1        1 MOL      0.084888
     17 H6          4.5410   -0.8450    3.9040 hc        1 MOL      0.060827
     18 H7          3.3200    0.3080    3.2890 hc        1 MOL      0.060827
     19 N2          2.8480   -3.5970    1.5040 n         1 MOL     -0.235663
     20 C7          3.0400   -4.9910    1.0670 c3        1 MOL     -0.097316
     21 C8          3.8390   -5.1440   -0.1800 c         1 MOL      0.590865
     22 O5          4.2120   -6.3190   -0.4130 o         1 MOL     -0.602526
     23 C9          1.6600   -5.6790    1.0880 c3        1 MOL      0.080829
     24 C10         0.5910   -4.7500    0.3790 c3        1 MOL      0.088255
     25 C11         1.2070   -5.9710    2.5490 c3        1 MOL     -0.298311
     26 C12        -0.6440   -5.5090   -0.1600 c3        1 MOL     -0.368868
     27 H8          2.1210   -3.1100    1.0180 hn        1 MOL      0.163642
     28 H9          3.6860   -5.5360    1.7580 h1        1 MOL      0.085337
     29 H10         1.7170   -6.5510    0.4350 hc        1 MOL     -0.000727
     30 H11         1.0200   -4.1580   -0.4300 hc        1 MOL      0.076703
     31 H12         0.1980   -4.0240    1.0940 hc        1 MOL      0.076703
     32 H13         1.8310   -6.6870    3.0820 hc        1 MOL      0.067746
     33 H14         1.1840   -5.1000    3.2020 hc        1 MOL      0.067746
     34 H15         0.1860   -6.3390    2.5980 hc        1 MOL      0.067746
     35 H16        -1.2460   -5.7830    0.7140 hc        1 MOL      0.090821
     36 H17        -1.1870   -4.9230   -0.9090 hc        1 MOL      0.090821
     37 H18        -0.3960   -6.4190   -0.7040 hc        1 MOL      0.090821
     38 N3          4.2420   -4.0680   -0.8340 n         1 MOL     -0.483137
     39 C13         4.8740   -3.9430   -2.1340 c3        1 MOL      0.229050
     40 C14         6.0970   -2.9210   -2.0900 c         1 MOL      0.321770
     41 O6          6.6740   -2.5610   -3.1350 o         1 MOL     -0.512192
     42 C15         3.8820   -3.6250   -3.2370 c3        1 MOL     -0.255767
     43 C16         3.1060   -2.3350   -3.0770 c         1 MOL      0.861820
     44 O7          3.4410   -1.4810   -2.2560 o         1 MOL     -0.716937
     45 O8          2.3240   -2.0320   -3.9830 o         1 MOL     -0.716937
     46 H19         3.8780   -3.2070   -0.4450 hn        1 MOL      0.200271
     47 H20         5.3700   -4.9070   -2.3120 h1        1 MOL      0.034256
     48 H21         3.1220   -4.3920   -3.3180 hc        1 MOL      0.049607
     49 H22         4.4790   -3.5400   -4.1460 hc        1 MOL      0.049607
     50 N4          6.5330   -2.4780   -0.9370 n         1 MOL     -0.162882
     51 C17         7.7990   -1.8250   -0.6280 c3        1 MOL     -0.331712
     52 C18         7.8620   -0.3860   -1.1770 c         1 MOL      0.591182
     53 O9          8.9860   -0.0250   -1.4660 o         1 MOL     -0.612498
     54 H23         5.9420   -2.7090   -0.1520 hn        1 MOL      0.196567
     55 H24         8.5390   -2.3960   -1.1950 h1        1 MOL      0.148752
     56 H25         8.0430   -1.9450    0.4250 h1        1 MOL      0.148752
     57 N5          6.8360    0.4390   -1.3140 n         1 MOL     -0.200022
     58 C19         6.8810    1.8130   -1.6900 c3        1 MOL     -0.083555
     59 C20         6.7150    2.8390   -0.4950 c         1 MOL      0.310845
     60 O10         6.7540    4.1140   -0.6840 o         1 MOL     -0.521254
     61 C21         5.8620    2.1320   -2.8240 c3        1 MOL     -0.043541
     62 C22         4.4340    1.9510   -2.2310 c         1 MOL      0.612037
     63 O11         3.4920    1.6040   -2.9960 o         1 MOL     -0.717256
     64 O12         4.1520    2.0510   -1.0060 o         1 MOL     -0.717256
     65 H26         6.0020    0.0130   -0.9170 hn        1 MOL      0.185777
     66 H27         7.8490    1.9880   -2.1550 h1        1 MOL      0.117140
     67 H28         6.0400    1.4960   -3.6970 hc        1 MOL      0.044992
     68 H29         5.9550    3.1700   -3.1450 hc        1 MOL      0.044992
     69 N6          6.6420    2.4090    0.7510 n         1 MOL     -0.084338
     70 C23         6.6010    3.2460    1.9200 c3        1 MOL     -0.115197
     71 C24         5.2540    4.0900    2.0480 c         1 MOL      0.584384
     72 O13         5.2420    4.9580    2.9390 o         1 MOL     -0.608849
     73 H30         6.4720    1.4270    0.8940 hn        1 MOL      0.167400
     74 H31         7.4140    3.9740    1.9770 h1        1 MOL      0.061465
     75 H32         6.6000    2.5530    2.7610 h1        1 MOL      0.061465
     76 N7          4.1980    3.7860    1.3310 n         1 MOL     -0.246257
     77 C25         2.9450    4.5170    1.4960 c3        1 MOL     -0.036122
     78 C26         1.7600    3.5320    1.4070 c         1 MOL      0.637116
     79 O14         1.7870    2.5590    0.6020 o         1 MOL     -0.671789
     80 C27         2.8700    5.6990    0.4260 c3        1 MOL     -0.058930
     81 C28         3.0130    5.2260   -1.0700 c3        1 MOL     -0.047291
     82 C29         3.3440    6.4110   -2.0400 c         1 MOL      0.530206
     83 N8          3.4570    6.0930   -3.3000 n         1 MOL     -0.662449
     84 O15         3.5600    7.5880   -1.6820 o         1 MOL     -0.563094
     85 H33         4.3090    3.0180    0.6930 hn        1 MOL      0.140192
     86 H34         2.9870    4.9500    2.5000 h1        1 MOL      0.049289
     87 H35         3.5810    6.4760    0.6880 hc        1 MOL      0.031401
     88 H36         1.9100    6.2190    0.5280 hc        1 MOL      0.031401
     89 H37         2.1620    4.6490   -1.4240 hc        1 MOL      0.051260
     90 H38         3.9280    4.6290   -1.0590 hc        1 MOL      0.051260
     91 H39         3.1200    5.1850   -3.5820 hn        1 MOL      0.323680
     92 H40         3.5790    6.8040   -4.0080 hn        1 MOL      0.323680
     93 N9          0.6250    3.7850    2.0770 n         1 MOL     -0.412687
     94 C30        -0.4700    2.8310    2.1950 c3        1 MOL      0.011185
     95 C31        -1.6460    3.1550    1.3080 c         1 MOL      0.496912
     96 O16        -2.1850    4.2120    1.3940 o         1 MOL     -0.598622
     97 C32        -1.0460    2.5690    3.6060 c3        1 MOL      0.288815
     98 C33        -2.1070    1.4980    3.6200 c3        1 MOL     -0.352653
     99 C34         0.1330    2.0190    4.4960 c3        1 MOL     -0.352653
    100 H41         0.6030    4.5970    2.6730 hn        1 MOL      0.263805
    101 H42        -0.1610    1.8550    1.8170 h1        1 MOL      0.123092
    102 H43        -1.3860    3.5150    4.0400 hc        1 MOL     -0.039353
    103 H44        -1.7040    0.6210    3.1170 hc        1 MOL      0.069325
    104 H45        -2.4370    1.2710    4.6340 hc        1 MOL      0.069325
    105 H46        -2.9410    1.7990    2.9980 hc        1 MOL      0.069325
    106 H47        -0.1960    2.1340    5.5340 hc        1 MOL      0.069325
    107 H48         0.3610    0.9560    4.3870 hc        1 MOL      0.069325
    108 H49         1.0370    2.5960    4.3350 hc        1 MOL      0.069325
    109 N10        -1.9360    2.3740    0.2650 n         1 MOL     -0.223374
    110 C35        -2.9880    2.5860   -0.7530 c3        1 MOL      0.041134
    111 C36        -4.3210    1.8800   -0.3000 c         1 MOL      0.373016
    112 O17        -4.2370    1.0140    0.6290 o         1 MOL     -0.346731
    113 C37        -2.5480    1.8710   -2.0330 c3        1 MOL     -0.334250
    114 C38        -3.5650    1.9600   -3.0960 c         1 MOL      0.769857
    115 N11        -3.8470    3.1770   -3.4920 n         1 MOL     -0.803781
    116 O18        -4.0400    0.9600   -3.6130 o         1 MOL     -0.545159
    117 H50        -1.3730    1.5570    0.0600 hn        1 MOL      0.256551
    118 H51        -3.2510    3.6300   -0.9380 h1        1 MOL      0.040135
    119 H52        -2.4190    0.8010   -1.8380 hc        1 MOL      0.126645
    120 H53        -1.6120    2.3310   -2.3520 hc        1 MOL      0.126645
    121 H54        -3.6110    4.0110   -2.9740 hn        1 MOL      0.347837
    122 H55        -4.4420    3.3660   -4.2750 hn        1 MOL      0.347837
    123 N12        -5.4840    2.3220   -0.7590 n         1 MOL     -0.453278
    124 C39        -6.8030    1.6930   -0.3730 c3        1 MOL      0.207286
    125 C40        -6.8050    0.1530   -0.5680 c         1 MOL      0.513590
    126 O19        -7.3740   -0.5640    0.2610 o         1 MOL     -0.535980
    127 C41        -7.9180    2.1510   -1.2320 c3        1 MOL     -0.178612
    128 C42        -9.2810    1.9060   -0.6730 ca        1 MOL     -0.053895
    129 C43        -9.7000    2.6200    0.4370 ca        1 MOL     -0.052299
    130 C44       -10.1430    0.8890   -1.1330 ca        1 MOL     -0.052299
    131 C45       -10.9660    2.3790    1.1150 ca        1 MOL     -0.393524
    132 C46       -11.4690    0.6880   -0.5780 ca        1 MOL     -0.393524
    133 C47       -11.8470    1.4510    0.5620 ca        1 MOL      0.452337
    134 O20       -13.1060    1.2610    1.1470 oh        1 MOL     -0.551145
    135 H56        -5.4120    3.1150   -1.3780 hn        1 MOL      0.246369
    136 H57        -7.0230    1.9150    0.6750 h1        1 MOL      0.056563
    137 H58        -7.9130    1.6670   -2.2030 hc        1 MOL      0.071871
    138 H59        -7.9000    3.2280   -1.4140 hc        1 MOL      0.071871
    139 H60        -9.0220    3.3820    0.7920 ha        1 MOL      0.111810
    140 H61        -9.7630    0.2540   -1.9180 ha        1 MOL      0.111810
    141 H62       -11.2340    2.8480    2.0610 ha        1 MOL      0.178168
    142 H63       -12.0660   -0.1220   -0.9670 ha        1 MOL      0.178168
    143 H64       -13.5820    0.5620    0.6910 ho        1 MOL      0.372199
    144 N13        -6.0800   -0.4480   -1.5170 n         1 MOL     -0.292529
    145 C48        -5.8830   -1.8490   -1.6720 c3        1 MOL      0.082595
    146 C49        -5.1940   -2.5250   -0.4670 c         1 MOL      0.369983
    147 O21        -5.5400   -3.6610   -0.1620 o         1 MOL     -0.510845
    148 C50        -5.1490   -1.9710   -2.9310 c3        1 MOL      0.124830
    149 C51        -5.3330   -3.3680   -3.5670 c3        1 MOL     -0.303176
    150 C52        -4.2130   -3.6680   -4.5810 c         1 MOL      0.736472
    151 O22        -4.1730   -2.8740   -5.5550 o         1 MOL     -0.726655
    152 O23        -3.3950   -4.6100   -4.4820 o         1 MOL     -0.726655
    153 H65        -5.5390    0.1870   -2.0820 hn        1 MOL      0.112951
    154 H66        -6.8440   -2.3680   -1.7950 h1        1 MOL      0.040224
    155 H67        -4.1190   -1.6840   -2.7370 hc        1 MOL      0.004099
    156 H68        -5.6180   -1.2150   -3.5590 hc        1 MOL      0.004099
    157 H69        -6.3140   -3.4500   -4.0490 hc        1 MOL      0.034199
    158 H70        -5.2670   -4.1410   -2.7990 hc        1 MOL      0.034199
    159 N14        -4.3390   -1.7530    0.2640 n         1 MOL     -0.084118
    160 C53        -3.5100   -2.1820    1.3630 c3        1 MOL     -0.090267
    161 C54        -4.1060   -1.8420    2.7560 c         1 MOL      0.342248
    162 O24        -3.9220   -2.7220    3.7120 o         1 MOL     -0.548609
    163 C55        -2.0880   -1.5780    1.3530 c3        1 MOL      0.042150
    164 C56        -1.5200   -1.7070   -0.0570 c3        1 MOL     -0.224044
    165 C57        -0.1390   -0.9510   -0.0570 c         1 MOL      0.840706
    166 O25         0.9170   -1.6200    0.0020 o         1 MOL     -0.866255
    167 O26        -0.0530    0.2920   -0.0190 o         1 MOL     -0.866255
    168 H71        -4.2090   -0.7790    0.0550 hn        1 MOL      0.127068
    169 H72        -3.2950   -3.2450    1.2620 h1        1 MOL      0.102101
    170 H73        -1.3620   -1.9520    2.0650 hc        1 MOL      0.074223
    171 H74        -2.2070   -0.5020    1.4920 hc        1 MOL      0.074223
    172 H75        -2.1310   -1.1970   -0.8020 hc        1 MOL      0.058567
    173 H76        -1.2670   -2.7420   -0.3000 hc        1 MOL      0.058567
    174 N15        -4.9340   -0.7950    2.8950 n         1 MOL      0.026163
    175 C58        -5.7510   -0.5210    4.0950 c3        1 MOL     -0.358006
    176 H77        -6.4110   -1.3670    4.2860 h1        1 MOL      0.121552
    177 H78        -5.0970   -0.3700    4.9530 h1        1 MOL      0.121552
    178 H79        -6.3490    0.3760    3.9310 h1        1 MOL      0.121552
    179 H80        -5.1130   -0.2960    2.0300 hn        1 MOL      0.037999
    180 Ca1         2.2790    0.4170   -0.9390 Ca        1 MOL      1.807372
    181 O27         0.4450   -0.2760   -2.9070 oh        1 MOL     -0.940016
    182 H81        -0.4500   -0.4840   -3.1720 ho        1 MOL      0.432147
    183 H82         1.0010   -0.8370   -3.4480 ho        1 MOL      0.432147
@<TRIPOS>BOND
     1    1    2 1   
     2    1    4 1   
     3    1    5 1   
     4    1    6 1   
     5    2    3 2   
     6    2    7 1   
     7    7    8 1   
     8    7   15 1   
     9    8    9 1   
    10    8   11 1   
    11    8   16 1   
    12    9   10 2   
    13    9   19 1   
    14   11   12 1   
    15   11   17 1   
    16   11   18 1   
    17   12   13 1   
    18   12   14 1   
    19   19   20 1   
    20   19   27 1   
    21   20   21 1   
    22   20   23 1   
    23   20   28 1   
    24   21   22 2   
    25   21   38 1   
    26   23   24 1   
    27   23   25 1   
    28   23   29 1   
    29   24   26 1   
    30   24   30 1   
    31   24   31 1   
    32   25   32 1   
    33   25   33 1   
    34   25   34 1   
    35   26   35 1   
    36   26   36 1   
    37   26   37 1   
    38   38   39 1   
    39   38   46 1   
    40   39   40 1   
    41   39   42 1   
    42   39   47 1   
    43   40   41 2   
    44   40   50 1   
    45   42   43 1   
    46   42   48 1   
    47   42   49 1   
    48   43   44 1   
    49   43   45 1   
    50   50   51 1   
    51   50   54 1   
    52   51   52 1   
    53   51   55 1   
    54   51   56 1   
    55   52   53 2   
    56   52   57 1   
    57   57   58 1   
    58   57   65 1   
    59   58   59 1   
    60   58   61 1   
    61   58   66 1   
    62   59   60 2   
    63   59   69 1   
    64   61   62 1   
    65   61   67 1   
    66   61   68 1   
    67   62   63 1   
    68   62   64 1   
    69   69   70 1   
    70   69   73 1   
    71   70   71 1   
    72   70   74 1   
    73   70   75 1   
    74   71   72 2   
    75   71   76 1   
    76   76   77 1   
    77   76   85 1   
    78   77   78 1   
    79   77   80 1   
    80   77   86 1   
    81   78   79 2   
    82   78   93 1   
    83   80   81 1   
    84   80   87 1   
    85   80   88 1   
    86   81   82 1   
    87   81   89 1   
    88   81   90 1   
    89   82   83 1   
    90   82   84 2   
    91   83   91 1   
    92   83   92 1   
    93   93   94 1   
    94   93  100 1   
    95   94   95 1   
    96   94   97 1   
    97   94  101 1   
    98   95   96 2   
    99   95  109 1   
   100   97   98 1   
   101   97   99 1   
   102   97  102 1   
   103   98  103 1   
   104   98  104 1   
   105   98  105 1   
   106   99  106 1   
   107   99  107 1   
   108   99  108 1   
   109  109  110 1   
   110  109  117 1   
   111  110  111 1   
   112  110  113 1   
   113  110  118 1   
   114  111  112 2   
   115  111  123 1   
   116  113  114 1   
   117  113  119 1   
   118  113  120 1   
   119  114  115 1   
   120  114  116 2   
   121  115  121 1   
   122  115  122 1   
   123  123  124 1   
   124  123  135 1   
   125  124  125 1   
   126  124  127 1   
   127  124  136 1   
   128  125  126 2   
   129  125  144 1   
   130  127  128 1   
   131  127  137 1   
   132  127  138 1   
   133  128  129 ar  
   134  128  130 ar  
   135  129  131 ar  
   136  129  139 1   
   137  130  132 ar  
   138  130  140 1   
   139  131  133 ar  
   140  131  141 1   
   141  132  133 ar  
   142  132  142 1   
   143  133  134 1   
   144  134  143 1   
   145  144  145 1   
   146  144  153 1   
   147  145  146 1   
   148  145  148 1   
   149  145  154 1   
   150  146  147 2   
   151  146  159 1   
   152  148  149 1   
   153  148  155 1   
   154  148  156 1   
   155  149  150 1   
   156  149  157 1   
   157  149  158 1   
   158  150  151 1   
   159  150  152 1   
   160  159  160 1   
   161  159  168 1   
   162  160  161 1   
   163  160  163 1   
   164  160  169 1   
   165  161  162 2   
   166  161  174 1   
   167  163  164 1   
   168  163  170 1   
   169  163  171 1   
   170  164  165 1   
   171  164  172 1   
   172  164  173 1   
   173  165  166 1   
   174  165  167 1   
   175  174  175 1   
   176  174  179 1   
   177  175  176 1   
   178  175  177 1   
   179  175  178 1   
   180  181  182 1   
   181  181  183 1   
@<TRIPOS>SUBSTRUCTURE
     1 MOL         1 TEMP              0 ****  ****    0 ROOT
