@<TRIPOS>MOLECULE
MOL
  176   174     1     0     0
SMALL
resp


@<TRIPOS>ATOM
      1 C1          0.9640    3.8110    6.4870 c3        1 MOL     -0.408095
      2 C2          0.8450    3.1910    5.1350 c         1 MOL      0.732631
      3 O1          1.8140    2.7520    4.5210 o         1 MOL     -0.544721
      4 H1         -0.0310    4.0050    6.8860 hc        1 MOL      0.106805
      5 H2          1.4970    3.1320    7.1530 hc        1 MOL      0.106805
      6 H3          1.5120    4.7500    6.4100 hc        1 MOL      0.106805
      7 N1         -0.3770    3.2630    4.5600 n         1 MOL     -0.599529
      8 C3         -0.6630    3.0580    3.1700 c3        1 MOL      0.122120
      9 C4         -0.5920    4.3810    2.3550 c         1 MOL      0.655875
     10 O2         -0.5560    5.4860    2.8710 o         1 MOL     -0.563833
     11 C5         -2.0130    2.2690    2.9480 c3        1 MOL     -0.168644
     12 C6         -2.1320    1.4460    1.6260 c         1 MOL      0.603072
     13 O3         -3.1410    0.8070    1.1670 o         1 MOL     -0.637922
     14 O4         -1.2050    1.5190    0.8140 o         1 MOL     -0.637922
     15 H4         -1.1880    3.3360    5.1710 hn        1 MOL      0.315929
     16 H5          0.1290    2.4250    2.7850 h1        1 MOL      0.006847
     17 H6         -2.7840    3.0390    2.8750 hc        1 MOL      0.049300
     18 H7         -2.1580    1.6380    3.8220 hc        1 MOL      0.049300
     19 N2         -0.5570    4.2230    0.9910 n         1 MOL     -0.436692
     20 C7         -0.3900    5.2500   -0.0150 c3        1 MOL     -0.053967
     21 C8         -1.6990    5.4520   -0.8410 c         1 MOL      0.471735
     22 O5         -2.1280    6.5660   -1.1570 o         1 MOL     -0.572448
     23 C9          0.8110    4.8690   -0.8560 c3        1 MOL     -0.020218
     24 C10         1.1610    5.9700   -1.9180 c3        1 MOL     -0.024080
     25 C11         2.5660    5.9510   -2.4170 c3        1 MOL      0.129207
     26 C12         2.8300    7.1380   -3.3590 c3        1 MOL     -0.011773
     27 N3          4.3240    7.3530   -3.3460 n4        1 MOL     -0.333056
     28 H8         -0.5600    3.2510    0.7060 hn        1 MOL      0.236944
     29 H9         -0.0850    6.1040    0.5870 h1        1 MOL      0.113542
     30 H10         0.7210    3.9320   -1.4000 hc        1 MOL      0.049447
     31 H11         1.6450    4.7650   -0.1490 hc        1 MOL      0.049447
     32 H12         0.8930    6.9530   -1.5210 hc        1 MOL      0.006516
     33 H13         0.5250    5.7210   -2.7690 hc        1 MOL      0.006516
     34 H14         2.7720    5.0130   -2.9460 hc        1 MOL     -0.011398
     35 H15         3.2070    5.9810   -1.5330 hc        1 MOL     -0.011398
     36 H16         2.3190    8.0220   -2.9990 hx        1 MOL      0.095095
     37 H17         2.3300    6.8630   -4.2940 hx        1 MOL      0.095095
     38 H18         4.6700    7.4800   -2.4040 hn        1 MOL      0.320649
     39 H19         4.7910    6.4980   -3.6240 hn        1 MOL      0.320649
     40 H20         4.5650    8.1120   -3.9610 hn        1 MOL      0.320649
     41 N4         -2.3560    4.3640   -1.1000 n         1 MOL     -0.210864
     42 C13        -3.5780    4.3710   -1.8920 c3        1 MOL      0.070622
     43 C14        -4.8440    3.9550   -1.0320 c         1 MOL      0.334100
     44 O6         -5.9910    4.3720   -1.3950 o         1 MOL     -0.517549
     45 C15        -3.5320    3.5130   -3.2320 c3        1 MOL     -0.378958
     46 C16        -3.0880    1.9920   -2.9710 c         1 MOL      0.790115
     47 O7         -3.1620    1.2840   -3.9860 o         1 MOL     -0.697370
     48 O8         -2.9720    1.5030   -1.8230 o         1 MOL     -0.697370
     49 H21        -1.9830    3.4770   -0.7890 hn        1 MOL      0.199917
     50 H22        -3.7650    5.3810   -2.2550 h1        1 MOL      0.112272
     51 H23        -2.9350    4.0440   -3.9710 hc        1 MOL      0.116945
     52 H24        -4.5310    3.5170   -3.6590 hc        1 MOL      0.116945
     53 N5         -4.6260    3.2460    0.0900 n         1 MOL     -0.037194
     54 C17        -5.6520    2.7700    1.0230 c3        1 MOL     -0.200893
     55 C18        -6.4370    1.6190    0.4470 c         1 MOL      0.565937
     56 O9         -7.5870    1.4750    0.8020 o         1 MOL     -0.560602
     57 H25        -3.6910    2.8900    0.2560 hn        1 MOL     -0.027476
     58 H26        -6.3050    3.6180    1.2410 h1        1 MOL      0.104951
     59 H27        -5.0810    2.4040    1.8800 h1        1 MOL      0.104951
     60 N6         -5.8270    0.8290   -0.4430 n         1 MOL     -0.312800
     61 C19        -6.4350   -0.3400   -1.0900 c3        1 MOL      0.040289
     62 C20        -6.6130   -1.5420   -0.1400 c         1 MOL      0.409070
     63 O10        -7.4310   -2.4230   -0.4120 o         1 MOL     -0.528743
     64 C21        -5.7840   -0.8540   -2.3900 c3        1 MOL     -0.321762
     65 C22        -4.7330   -1.9260   -2.0250 c         1 MOL      0.649314
     66 N7         -4.7730   -3.0960   -2.5480 n         1 MOL     -0.701503
     67 O11        -3.8880   -1.6670   -1.1310 o         1 MOL     -0.591631
     68 H28        -4.8380    0.9600   -0.5810 hn        1 MOL      0.279016
     69 H29        -7.4450    0.0170   -1.2910 h1        1 MOL      0.115859
     70 H30        -5.3070   -0.0320   -2.9220 hc        1 MOL      0.120187
     71 H31        -6.5870   -1.3310   -2.9540 hc        1 MOL      0.120187
     72 H32        -5.4570   -3.2970   -3.2550 hn        1 MOL      0.347172
     73 H33        -4.0230   -3.7500   -2.3410 hn        1 MOL      0.347172
     74 N8         -5.9970   -1.4970    1.0530 n         1 MOL     -0.189101
     75 C23        -6.2350   -2.4800    2.1660 c3        1 MOL     -0.163057
     76 C24        -5.0370   -3.3800    2.3810 c         1 MOL      0.470224
     77 O12        -5.0400   -4.2530    3.2190 o         1 MOL     -0.569937
     78 H34        -5.2610   -0.8160    1.1970 hn        1 MOL      0.166576
     79 H35        -7.1330   -3.0490    1.9360 h1        1 MOL      0.127800
     80 H36        -6.5320   -1.9780    3.0840 h1        1 MOL      0.127800
     81 N9         -3.9250   -3.2430    1.7030 n         1 MOL     -0.133649
     82 C25        -2.6830   -3.9890    1.9410 c3        1 MOL     -0.053847
     83 C26        -1.5380   -3.0710    1.6760 c         1 MOL      0.537397
     84 O13        -1.5310   -2.1400    0.8690 o         1 MOL     -0.648951
     85 C27        -2.5740   -5.3140    1.0580 c3        1 MOL     -0.173716
     86 C28        -2.5650   -5.3180   -0.4630 ca        1 MOL      0.058579
     87 C29        -1.3720   -4.7830   -1.1230 ca        1 MOL     -0.115097
     88 C30        -3.5280   -5.9180   -1.2640 ca        1 MOL     -0.115097
     89 C31        -1.2970   -4.7540   -2.5000 ca        1 MOL     -0.287735
     90 C32        -3.3290   -6.0340   -2.6560 ca        1 MOL     -0.287735
     91 C33        -2.2460   -5.4090   -3.3180 ca        1 MOL      0.367006
     92 O14        -2.1730   -5.4200   -4.7080 oh        1 MOL     -0.518244
     93 H37        -3.8890   -2.4310    1.1030 hn        1 MOL      0.122745
     94 H38        -2.5790   -4.2580    2.9830 h1        1 MOL      0.100535
     95 H39        -3.3750   -6.0020    1.3220 hc        1 MOL      0.083264
     96 H40        -1.6190   -5.7450    1.3630 hc        1 MOL      0.083264
     97 H41        -0.5780   -4.3780   -0.5130 ha        1 MOL      0.132195
     98 H42        -4.3570   -6.4130   -0.7810 ha        1 MOL      0.132195
     99 H43        -0.3660   -4.4050   -2.9170 ha        1 MOL      0.140110
    100 H44        -4.0490   -6.5730   -3.2520 ha        1 MOL      0.140110
    101 H45        -2.9160   -5.8810   -5.1040 ho        1 MOL      0.379567
    102 N10        -0.4550   -3.3680    2.4260 n         1 MOL     -0.268607
    103 C34         0.9070   -2.8060    2.2350 c3        1 MOL     -0.069186
    104 C35         1.7580   -3.7210    1.3680 c         1 MOL      0.561718
    105 O15         1.7500   -4.9250    1.4160 o         1 MOL     -0.556288
    106 C36         1.5530   -2.5700    3.6680 c3        1 MOL      0.124283
    107 C37         0.6400   -1.8550    4.6890 c3        1 MOL      0.110767
    108 C38         3.0020   -2.0330    3.6100 c3        1 MOL     -0.213063
    109 C39         0.4450   -0.3450    4.5770 c3        1 MOL     -0.028806
    110 H46        -0.4520   -4.1120    3.1120 hn        1 MOL      0.245999
    111 H47         0.8400   -1.8040    1.8050 h1        1 MOL      0.097499
    112 H48         1.6850   -3.5500    4.1350 hc        1 MOL     -0.010267
    113 H49         0.8930   -2.1470    5.7040 hc        1 MOL     -0.053169
    114 H50        -0.3280   -2.3420    4.5150 hc        1 MOL     -0.053169
    115 H51         3.0830   -1.2200    2.9000 hc        1 MOL      0.055732
    116 H52         3.3570   -1.6500    4.5600 hc        1 MOL      0.055732
    117 H53         3.6800   -2.8390    3.3240 hc        1 MOL      0.055732
    118 H54        -0.2320    0.0220    5.3380 hc        1 MOL      0.009453
    119 H55         1.3900    0.1370    4.8190 hc        1 MOL      0.009453
    120 H56        -0.0420   -0.0100    3.6600 hc        1 MOL      0.009453
    121 N11         2.5780   -3.0310    0.5740 n         1 MOL     -0.307998
    122 C40         3.5780   -3.5560   -0.4560 c3        1 MOL      0.103426
    123 C41         5.0060   -3.2280   -0.0830 c         1 MOL      0.430211
    124 O16         5.2170   -2.4610    0.8800 o         1 MOL     -0.414697
    125 C42         3.2170   -2.9660   -1.8530 c3        1 MOL     -0.079418
    126 O17         3.9780   -1.8620   -2.3240 oh        1 MOL     -0.476745
    127 H57         2.6550   -2.0270    0.6470 hn        1 MOL      0.173239
    128 H58         3.5530   -4.6400   -0.5710 h1        1 MOL      0.068466
    129 H59         2.1780   -2.6470   -1.8130 h1        1 MOL      0.094360
    130 H60         3.2500   -3.7600   -2.5910 h1        1 MOL      0.094360
    131 H61         4.1210   -2.0200   -3.2630 ho        1 MOL      0.378816
    132 N12         6.0640   -3.7110   -0.7390 n         1 MOL     -0.467750
    133 C43         7.4500   -3.4040   -0.4330 c3        1 MOL      0.194952
    134 C44         7.7680   -1.9140   -0.6970 c         1 MOL      0.324422
    135 O18         8.2100   -1.2280    0.2210 o         1 MOL     -0.431585
    136 C45         8.3740   -4.3990   -1.1110 c3        1 MOL     -0.241012
    137 H62         5.9130   -4.3920   -1.4690 hn        1 MOL      0.264862
    138 H63         7.6200   -3.5500    0.6310 h1        1 MOL      0.081580
    139 H64         8.1800   -5.4560   -0.9240 hc        1 MOL      0.077198
    140 H65         8.4920   -4.1840   -2.1680 hc        1 MOL      0.077198
    141 H66         9.3480   -4.3400   -0.6170 hc        1 MOL      0.077198
    142 N13         7.6550   -1.4600   -1.9250 n         1 MOL     -0.298542
    143 C46         7.6980   -0.0870   -2.3520 c3        1 MOL      0.146264
    144 C47         6.9360    0.8440   -1.3380 c         1 MOL      0.334900
    145 O19         7.5120    1.7700   -0.7150 o         1 MOL     -0.502473
    146 C48         7.2080    0.0800   -3.8190 c3        1 MOL     -0.346777
    147 H67         7.3200   -2.1340   -2.5940 hn        1 MOL      0.235625
    148 H68         8.7160    0.2870   -2.2550 h1        1 MOL      0.067780
    149 H69         7.4900    1.0220   -4.2940 hc        1 MOL      0.100827
    150 H70         7.7120   -0.6810   -4.4010 hc        1 MOL      0.100827
    151 H71         6.1310   -0.0340   -3.8560 hc        1 MOL      0.100827
    152 N14         5.6600    0.6520   -1.1140 n         1 MOL     -0.106720
    153 C49         4.8480    1.3280   -0.1300 c3        1 MOL     -0.088276
    154 C50         5.3790    1.2820    1.2730 c         1 MOL      0.445362
    155 O20         5.2410    2.3420    1.9910 o         1 MOL     -0.574670
    156 C51         3.4190    0.7360   -0.0680 c3        1 MOL     -0.097799
    157 C52         2.6100    1.1470   -1.3280 c3        1 MOL      0.087961
    158 C53         1.2260    0.6200   -1.2890 c         1 MOL      0.764432
    159 O21         0.9240   -0.3920   -0.5660 o         1 MOL     -0.813789
    160 O22         0.3040    1.1780   -1.9340 o         1 MOL     -0.813789
    161 H72         5.2250   -0.1840   -1.4850 hn        1 MOL      0.066678
    162 H73         4.8600    2.3650   -0.4750 h1        1 MOL      0.071772
    163 H74         2.9460    1.0930    0.8490 hc        1 MOL      0.078699
    164 H75         3.5070   -0.3450    0.0460 hc        1 MOL      0.078699
    165 H76         3.1060    0.6710   -2.1760 hc        1 MOL     -0.034351
    166 H77         2.6620    2.2300   -1.4020 hc        1 MOL     -0.034351
    167 N15         5.8930    0.1970    1.8350 n         1 MOL      0.024536
    168 C54         6.5780    0.1240    3.1540 c3        1 MOL     -0.259398
    169 H78         5.8940    0.4490    3.9370 h1        1 MOL      0.108849
    170 H79         6.8880   -0.9040    3.3470 h1        1 MOL      0.108849
    171 H80         7.4540    0.7720    3.1450 h1        1 MOL      0.108849
    172 H81         5.9930   -0.5360    1.1470 hn        1 MOL      0.029038
    173 Ca1        -1.6240   -0.3090   -0.8450 Ca        1 MOL      1.764840
    174 O23        -1.9910   -1.0960   -3.4080 oh        1 MOL     -0.923098
    175 H82        -2.3290   -0.2970   -3.8010 ho        1 MOL      0.427639
    176 H83        -1.7470   -1.6430   -4.1470 ho        1 MOL      0.427639
@<TRIPOS>BOND
     1    1    2 1   
     2    1    4 1   
     3    1    5 1   
     4    1    6 1   
     5    2    3 2   
     6    2    7 1   
     7    7    8 1   
     8    7   15 1   
     9    8    9 1   
    10    8   11 1   
    11    8   16 1   
    12    9   10 2   
    13    9   19 1   
    14   11   12 1   
    15   11   17 1   
    16   11   18 1   
    17   12   13 1   
    18   12   14 1   
    19   19   20 1   
    20   19   28 1   
    21   20   21 1   
    22   20   23 1   
    23   20   29 1   
    24   21   22 2   
    25   21   41 1   
    26   23   24 1   
    27   23   30 1   
    28   23   31 1   
    29   24   25 1   
    30   24   32 1   
    31   24   33 1   
    32   25   26 1   
    33   25   34 1   
    34   25   35 1   
    35   26   27 1   
    36   26   36 1   
    37   26   37 1   
    38   27   38 1   
    39   27   39 1   
    40   27   40 1   
    41   41   42 1   
    42   41   49 1   
    43   42   43 1   
    44   42   45 1   
    45   42   50 1   
    46   43   44 2   
    47   43   53 1   
    48   45   46 1   
    49   45   51 1   
    50   45   52 1   
    51   46   47 1   
    52   46   48 1   
    53   53   54 1   
    54   53   57 1   
    55   54   55 1   
    56   54   58 1   
    57   54   59 1   
    58   55   56 2   
    59   55   60 1   
    60   60   61 1   
    61   60   68 1   
    62   61   62 1   
    63   61   64 1   
    64   61   69 1   
    65   62   63 2   
    66   62   74 1   
    67   64   65 1   
    68   64   70 1   
    69   64   71 1   
    70   65   66 1   
    71   65   67 2   
    72   66   72 1   
    73   66   73 1   
    74   74   75 1   
    75   74   78 1   
    76   75   76 1   
    77   75   79 1   
    78   75   80 1   
    79   76   77 2   
    80   76   81 1   
    81   81   82 1   
    82   81   93 1   
    83   82   83 1   
    84   82   85 1   
    85   82   94 1   
    86   83   84 2   
    87   83  102 1   
    88   85   86 1   
    89   85   95 1   
    90   85   96 1   
    91   86   87 ar  
    92   86   88 ar  
    93   87   89 ar  
    94   87   97 1   
    95   88   90 ar  
    96   88   98 1   
    97   89   91 ar  
    98   89   99 1   
    99   90   91 ar  
   100   90  100 1   
   101   91   92 1   
   102   92  101 1   
   103  102  103 1   
   104  102  110 1   
   105  103  104 1   
   106  103  106 1   
   107  103  111 1   
   108  104  105 2   
   109  104  121 1   
   110  106  107 1   
   111  106  108 1   
   112  106  112 1   
   113  107  109 1   
   114  107  113 1   
   115  107  114 1   
   116  108  115 1   
   117  108  116 1   
   118  108  117 1   
   119  109  118 1   
   120  109  119 1   
   121  109  120 1   
   122  121  122 1   
   123  121  127 1   
   124  122  123 1   
   125  122  125 1   
   126  122  128 1   
   127  123  124 2   
   128  123  132 1   
   129  125  126 1   
   130  125  129 1   
   131  125  130 1   
   132  126  131 1   
   133  132  133 1   
   134  132  137 1   
   135  133  134 1   
   136  133  136 1   
   137  133  138 1   
   138  134  135 2   
   139  134  142 1   
   140  136  139 1   
   141  136  140 1   
   142  136  141 1   
   143  142  143 1   
   144  142  147 1   
   145  143  144 1   
   146  143  146 1   
   147  143  148 1   
   148  144  145 2   
   149  144  152 1   
   150  146  149 1   
   151  146  150 1   
   152  146  151 1   
   153  152  153 1   
   154  152  161 1   
   155  153  154 1   
   156  153  156 1   
   157  153  162 1   
   158  154  155 2   
   159  154  167 1   
   160  156  157 1   
   161  156  163 1   
   162  156  164 1   
   163  157  158 1   
   164  157  165 1   
   165  157  166 1   
   166  158  159 1   
   167  158  160 1   
   168  167  168 1   
   169  167  172 1   
   170  168  169 1   
   171  168  170 1   
   172  168  171 1   
   173  174  175 1   
   174  174  176 1   
@<TRIPOS>SUBSTRUCTURE
     1 MOL         1 TEMP              0 ****  ****    0 ROOT
