@<TRIPOS>MOLECULE
MOL
  189   185     1     0     0
SMALL
resp


@<TRIPOS>ATOM
      1 C1         -0.6000   -4.2590    5.8750 c3        1 MOL     -0.245879
      2 C2         -0.1470   -4.2120    4.3480 c         1 MOL      0.731507
      3 O1         -0.9420   -3.9900    3.4300 o         1 MOL     -0.581424
      4 H1         -0.6120   -5.2940    6.2180 hc        1 MOL      0.050825
      5 H2          0.1010   -3.6840    6.4810 hc        1 MOL      0.050825
      6 H3         -1.5990   -3.8330    5.9720 hc        1 MOL      0.050825
      7 N1          1.1670   -4.3060    4.1440 n         1 MOL     -0.720032
      8 C3          1.7340   -3.9080    2.8550 c3        1 MOL      0.431489
      9 C4          1.6230   -4.8800    1.6960 c         1 MOL      0.361876
     10 O2          1.9440   -6.0680    1.9630 o         1 MOL     -0.590383
     11 C5          3.2190   -3.6360    3.1200 c3        1 MOL     -0.254882
     12 C6          3.9720   -3.1470    1.9170 c         1 MOL      0.785113
     13 O3          5.2240   -3.3060    1.9730 o         1 MOL     -0.698644
     14 O4          3.4720   -2.6140    0.9060 o         1 MOL     -0.698644
     15 H4          1.7130   -4.5290    4.9680 hn        1 MOL      0.343228
     16 H5          1.2580   -2.9790    2.5480 h1        1 MOL      0.064556
     17 H6          3.6230   -4.5830    3.4670 hc        1 MOL      0.023279
     18 H7          3.2920   -2.9240    3.9510 hc        1 MOL      0.023279
     19 N2          1.3560   -4.6190    0.4190 n         1 MOL      0.020507
     20 C7          1.2310   -5.5010   -0.7460 c3        1 MOL     -0.145499
     21 C8          1.9600   -5.0500   -2.0460 c         1 MOL      0.477912
     22 O5          1.7350   -5.5650   -3.1550 o         1 MOL     -0.571531
     23 C9         -0.3010   -5.8330   -1.1330 c3        1 MOL      0.391104
     24 C10        -1.0180   -4.6090   -1.5400 c3        1 MOL      0.021797
     25 C11        -0.8670   -6.5870    0.1160 c3        1 MOL     -0.438582
     26 C12        -2.4910   -4.7850   -1.7590 c3        1 MOL     -0.333398
     27 H8          0.9530   -3.7040    0.2620 hn        1 MOL     -0.041403
     28 H9          1.7440   -6.4400   -0.5050 h1        1 MOL      0.074915
     29 H10        -0.2760   -6.5300   -1.9710 hc        1 MOL     -0.097517
     30 H11        -0.5740   -4.1310   -2.4110 hc        1 MOL      0.060235
     31 H12        -0.8650   -3.9330   -0.6900 hc        1 MOL      0.060235
     32 H13        -0.1910   -7.4260    0.2570 hc        1 MOL      0.096928
     33 H14        -0.7370   -5.9050    0.9480 hc        1 MOL      0.096928
     34 H15        -1.9150   -6.8580    0.0160 hc        1 MOL      0.096928
     35 H16        -2.9870   -5.0930   -0.8370 hc        1 MOL      0.066816
     36 H17        -2.9140   -3.9040   -2.2340 hc        1 MOL      0.066816
     37 H18        -2.5230   -5.5480   -2.5420 hc        1 MOL      0.066816
     38 N3          2.8600   -4.0670   -1.9100 n         1 MOL     -0.331219
     39 C13         3.7580   -3.6520   -3.0420 c3        1 MOL     -0.005346
     40 C14         5.1640   -3.3260   -2.5740 c         1 MOL      0.505957
     41 O6          6.0020   -2.9590   -3.3740 o         1 MOL     -0.561761
     42 C15         3.1110   -2.5930   -3.9060 c3        1 MOL     -0.202261
     43 C16         2.6850   -1.3740   -3.0590 c         1 MOL      0.862293
     44 O7          3.1620   -1.1690   -1.9020 o         1 MOL     -0.738046
     45 O8          1.8540   -0.6180   -3.5220 o         1 MOL     -0.738046
     46 H19         2.9390   -3.5490   -1.0440 hn        1 MOL      0.169262
     47 H20         4.0690   -4.5090   -3.6310 h1        1 MOL      0.093517
     48 H21         2.2250   -2.9810   -4.4010 hc        1 MOL      0.058658
     49 H22         3.7610   -2.2550   -4.7020 hc        1 MOL      0.058658
     50 N4          5.5280   -3.2010   -1.2600 n         1 MOL     -0.397621
     51 C17         6.9070   -2.8580   -0.9030 c3        1 MOL     -0.121086
     52 C18         7.4840   -1.4640   -1.0440 c         1 MOL      0.412579
     53 O9          8.6910   -1.2540   -0.8860 o         1 MOL     -0.580756
     54 H23         4.8850   -3.3520   -0.5010 hn        1 MOL      0.253785
     55 H24         7.5820   -3.5750   -1.3770 h1        1 MOL      0.102996
     56 H25         7.0530   -3.0350    0.1560 h1        1 MOL      0.102996
     57 N5          6.7040   -0.4490   -1.5150 n         1 MOL     -0.085566
     58 C19         7.2040    0.7700   -1.8900 c3        1 MOL      0.026110
     59 C20         7.5020    1.6470   -0.6870 c         1 MOL      0.407716
     60 O10         8.5000    2.4040   -0.7950 o         1 MOL     -0.558180
     61 C21         6.1840    1.5320   -2.7060 c3        1 MOL     -0.308332
     62 C22         4.8290    1.8010   -1.9800 c         1 MOL      0.684825
     63 O11         4.4700    1.1960   -0.9240 o         1 MOL     -0.654554
     64 O12         3.9910    2.5870   -2.5250 o         1 MOL     -0.654554
     65 H26         5.7130   -0.6040   -1.6380 hn        1 MOL      0.173006
     66 H27         8.1410    0.7130   -2.4440 h1        1 MOL      0.088464
     67 H28         5.9010    0.9790   -3.6010 hc        1 MOL      0.085270
     68 H29         6.7310    2.4070   -3.0620 hc        1 MOL      0.085270
     69 N6          6.8540    1.5390    0.4930 n         1 MOL     -0.088479
     70 C23         7.1100    2.4580    1.5980 c3        1 MOL     -0.286162
     71 C24         6.2820    3.7150    1.5960 c         1 MOL      0.625595
     72 O13         6.5340    4.6900    2.2720 o         1 MOL     -0.602030
     73 H30         6.1110    0.8740    0.6320 hn        1 MOL      0.102044
     74 H31         8.1620    2.7090    1.7700 h1        1 MOL      0.103200
     75 H32         6.6470    1.8760    2.3970 h1        1 MOL      0.103200
     76 N7          5.1070    3.5780    0.9490 n         1 MOL     -0.409134
     77 C25         3.8470    4.3780    1.0920 c3        1 MOL      0.033097
     78 C26         2.5840    3.4650    1.2660 c         1 MOL      0.418840
     79 O14         2.7070    2.2680    1.3380 o         1 MOL     -0.514916
     80 C27         3.6470    5.3900   -0.0350 c3        1 MOL     -0.154385
     81 C28         4.7690    6.3880   -0.2180 c3        1 MOL     -0.147436
     82 C29         4.3840    7.5860   -1.1660 c         1 MOL      0.692257
     83 N8          5.3100    8.5230   -1.3120 n         1 MOL     -0.850303
     84 O15         3.3200    7.7170   -1.7770 o         1 MOL     -0.555795
     85 H33         5.1110    2.7950    0.3140 hn        1 MOL      0.300885
     86 H34         3.9290    5.0280    1.9600 h1        1 MOL      0.080569
     87 H35         2.7930    5.9590    0.3440 hc        1 MOL      0.072634
     88 H36         3.4160    4.8910   -0.9660 hc        1 MOL      0.072634
     89 H37         5.6250    5.8940   -0.6780 hc        1 MOL      0.063028
     90 H38         5.0670    6.7530    0.7690 hc        1 MOL      0.063028
     91 H39         6.2000    8.4600   -0.8540 hn        1 MOL      0.361507
     92 H40         5.1190    9.2580   -1.9810 hn        1 MOL      0.361507
     93 N9          1.3590    4.0810    1.3590 n         1 MOL     -0.331573
     94 C30         0.0500    3.4580    1.6790 c3        1 MOL      0.063263
     95 C31        -0.8250    3.7250    0.5280 c         1 MOL      0.392457
     96 O16        -1.2490    4.9030    0.2760 o         1 MOL     -0.554010
     97 C32        -0.4680    3.9360    3.0440 c3        1 MOL      0.321426
     98 C33        -1.6510    2.9310    3.3060 c3        1 MOL     -0.358836
     99 C34         0.4980    3.8540    4.2640 c3        1 MOL     -0.358836
    100 H41         1.4370    5.0650    1.1790 hn        1 MOL      0.238951
    101 H42         0.1050    2.3680    1.6860 h1        1 MOL      0.039679
    102 H43        -0.7930    4.9870    3.0260 hc        1 MOL     -0.052072
    103 H44        -1.1460    2.0230    3.6150 hc        1 MOL      0.074253
    104 H45        -2.2590    3.2460    4.1560 hc        1 MOL      0.074253
    105 H46        -2.2920    2.7180    2.4420 hc        1 MOL      0.074253
    106 H47        -0.0420    4.2690    5.1240 hc        1 MOL      0.074253
    107 H48         0.7390    2.8320    4.5680 hc        1 MOL      0.074253
    108 H49         1.3480    4.4800    4.0250 hc        1 MOL      0.074253
    109 N10        -1.1570    2.6650   -0.2850 n         1 MOL     -0.319283
    110 C35        -2.3400    2.6670   -1.1630 c3        1 MOL      0.249608
    111 C36        -3.5960    2.2840   -0.4240 c         1 MOL      0.199081
    112 O17        -3.6500    1.8100    0.7070 o         1 MOL     -0.137453
    113 C37        -1.9460    1.6280   -2.2320 c3        1 MOL     -0.545317
    114 C38        -3.1110    1.1660   -3.1860 c         1 MOL      0.726104
    115 N11        -3.4320   -0.0870   -3.1880 n         1 MOL     -0.692380
    116 O18        -3.7470    1.9540   -3.8440 o         1 MOL     -0.596225
    117 H50        -0.5420    1.8640   -0.3050 hn        1 MOL      0.270052
    118 H51        -2.4970    3.6550   -1.5850 h1        1 MOL      0.065302
    119 H52        -1.6420    0.7300   -1.6920 hc        1 MOL      0.178362
    120 H53        -1.1110    1.9820   -2.8320 hc        1 MOL      0.178362
    121 H54        -2.8040   -0.7580   -2.7860 hn        1 MOL      0.344585
    122 H55        -4.1820   -0.3790   -3.7970 hn        1 MOL      0.344585
    123 N12        -4.7390    2.4420   -1.0750 n         1 MOL     -0.336341
    124 C39        -6.0630    2.2690   -0.5030 c3        1 MOL      0.082161
    125 C40        -6.2440    0.9060    0.0330 c         1 MOL      0.535925
    126 O19        -6.7440    0.7080    1.1600 o         1 MOL     -0.576113
    127 C41        -7.1050    2.5360   -1.5190 c3        1 MOL      0.125573
    128 C42        -8.5730    2.4020   -1.1310 ca        1 MOL     -0.136087
    129 C43        -9.1590    3.3430   -0.2580 ca        1 MOL     -0.054106
    130 C44        -9.2540    1.2220   -1.4590 ca        1 MOL     -0.054106
    131 C45       -10.4660    3.1590    0.2220 ca        1 MOL     -0.275207
    132 C46       -10.5620    0.9920   -0.9740 ca        1 MOL     -0.275207
    133 C47       -11.2280    2.0070   -0.1750 ca        1 MOL      0.327105
    134 O20       -12.4830    1.7840    0.3100 oh        1 MOL     -0.550970
    135 H56        -4.7230    2.7920   -2.0270 hn        1 MOL      0.223172
    136 H57        -6.2730    2.9950    0.2850 h1        1 MOL      0.023753
    137 H58        -6.9130    2.0310   -2.4680 hc        1 MOL      0.013520
    138 H59        -6.9500    3.5670   -1.8670 hc        1 MOL      0.013520
    139 H60        -8.6650    4.2920   -0.1210 ha        1 MOL      0.089395
    140 H61        -8.7220    0.4730   -2.0220 ha        1 MOL      0.089395
    141 H62       -10.9520    3.9300    0.7830 ha        1 MOL      0.135155
    142 H63       -10.9900    0.0210   -1.1370 ha        1 MOL      0.135155
    143 H64       -12.7930    0.8890    0.1330 ho        1 MOL      0.396825
    144 N13        -5.9520   -0.1720   -0.7650 n         1 MOL     -0.090479
    145 C48        -6.1140   -1.5900   -0.3710 c3        1 MOL     -0.188837
    146 C49        -5.1100   -2.0750    0.7140 c         1 MOL      0.321850
    147 O21        -5.1580   -3.2220    1.1560 o         1 MOL     -0.526676
    148 C50        -5.9980   -2.4980   -1.6060 c3        1 MOL      0.192293
    149 C51        -7.1810   -2.4180   -2.5280 c3        1 MOL     -0.265414
    150 C52        -7.0490   -1.3480   -3.6360 c         1 MOL      0.772303
    151 O22        -5.9410   -0.9280   -4.0370 o         1 MOL     -0.720256
    152 O23        -8.0930   -0.9030   -4.1640 o         1 MOL     -0.720256
    153 H65        -5.3870    0.0380   -1.5720 hn        1 MOL      0.137603
    154 H66        -7.1090   -1.7600    0.0250 h1        1 MOL      0.141272
    155 H67        -5.9270   -3.5040   -1.1950 hc        1 MOL     -0.013045
    156 H68        -5.0940   -2.3100   -2.1940 hc        1 MOL     -0.013045
    157 H69        -8.0780   -2.3150   -1.9290 hc        1 MOL      0.024179
    158 H70        -7.2430   -3.3580   -3.0740 hc        1 MOL      0.024179
    159 N14        -4.3740   -1.1500    1.3460 n         1 MOL      0.082318
    160 C53        -3.5400   -1.3410    2.5400 c3        1 MOL     -0.008544
    161 C54        -4.0980   -0.3930    3.6450 c         1 MOL      0.451879
    162 O24        -4.1800   -0.7740    4.7580 o         1 MOL     -0.551632
    163 C55        -2.0810   -0.9880    2.2610 c3        1 MOL      0.178880
    164 C56        -1.5570   -1.6050    0.9470 c3        1 MOL     -0.223366
    165 C57        -0.1450   -1.1400    0.6130 c         1 MOL      0.595793
    166 O25         0.6280   -1.8230   -0.0620 o         1 MOL     -0.666203
    167 O26         0.2090    0.0440    0.9340 o         1 MOL     -0.666203
    168 H71        -4.6100   -0.2080    1.0630 hn        1 MOL     -0.176809
    169 H72        -3.6190   -2.3610    2.9250 h1        1 MOL      0.075274
    170 H73        -1.4420   -1.3720    3.0510 hc        1 MOL     -0.038327
    171 H74        -1.8830    0.0830    2.1850 hc        1 MOL     -0.038327
    172 H75        -2.0390   -1.2290    0.0500 hc        1 MOL      0.054686
    173 H76        -1.6280   -2.6830    0.9380 hc        1 MOL      0.054686
    174 N15        -4.5050    0.8750    3.2810 n         1 MOL      0.003959
    175 C58        -5.0870    1.9150    4.1940 c3        1 MOL     -0.381099
    176 H77        -5.1230    2.8720    3.6760 h1        1 MOL      0.118962
    177 H78        -6.0950    1.6210    4.4850 h1        1 MOL      0.118962
    178 H79        -4.4640    2.0070    5.0840 h1        1 MOL      0.118962
    179 H80        -4.2870    1.2140    2.3620 hn        1 MOL      0.015819
    180 Ca1         2.6880   -0.1610    0.3140 Ca        1 MOL      1.749052
    181 O27         2.7230   -0.3770    3.0730 oh        1 MOL     -0.904540
    182 H81         2.7030   -0.8790    3.8860 ho        1 MOL      0.424836
    183 H82         3.4850    0.2060    3.1710 ho        1 MOL      0.424836
    184 O28         5.1510   -0.5360    1.6160 oh        1 MOL     -0.904540
    185 H83         5.8530   -0.5050    2.2630 ho        1 MOL      0.424836
    186 H84         5.0110   -1.4680    1.4580 ho        1 MOL      0.424836
    187 O29         1.6260    1.3890   -1.7000 oh        1 MOL     -0.904540
    188 H85         1.5530    0.6670   -2.3170 ho        1 MOL      0.424836
    189 H86         2.4130    1.8550   -1.9700 ho        1 MOL      0.424836
@<TRIPOS>BOND
     1    1    2 1   
     2    1    4 1   
     3    1    5 1   
     4    1    6 1   
     5    2    3 2   
     6    2    7 1   
     7    7    8 1   
     8    7   15 1   
     9    8    9 1   
    10    8   11 1   
    11    8   16 1   
    12    9   10 2   
    13    9   19 1   
    14   11   12 1   
    15   11   17 1   
    16   11   18 1   
    17   12   13 1   
    18   12   14 1   
    19   19   20 1   
    20   19   27 1   
    21   20   21 1   
    22   20   23 1   
    23   20   28 1   
    24   21   22 2   
    25   21   38 1   
    26   23   24 1   
    27   23   25 1   
    28   23   29 1   
    29   24   26 1   
    30   24   30 1   
    31   24   31 1   
    32   25   32 1   
    33   25   33 1   
    34   25   34 1   
    35   26   35 1   
    36   26   36 1   
    37   26   37 1   
    38   38   39 1   
    39   38   46 1   
    40   39   40 1   
    41   39   42 1   
    42   39   47 1   
    43   40   41 2   
    44   40   50 1   
    45   42   43 1   
    46   42   48 1   
    47   42   49 1   
    48   43   44 1   
    49   43   45 1   
    50   50   51 1   
    51   50   54 1   
    52   51   52 1   
    53   51   55 1   
    54   51   56 1   
    55   52   53 2   
    56   52   57 1   
    57   57   58 1   
    58   57   65 1   
    59   58   59 1   
    60   58   61 1   
    61   58   66 1   
    62   59   60 2   
    63   59   69 1   
    64   61   62 1   
    65   61   67 1   
    66   61   68 1   
    67   62   63 1   
    68   62   64 1   
    69   69   70 1   
    70   69   73 1   
    71   70   71 1   
    72   70   74 1   
    73   70   75 1   
    74   71   72 2   
    75   71   76 1   
    76   76   77 1   
    77   76   85 1   
    78   77   78 1   
    79   77   80 1   
    80   77   86 1   
    81   78   79 2   
    82   78   93 1   
    83   80   81 1   
    84   80   87 1   
    85   80   88 1   
    86   81   82 1   
    87   81   89 1   
    88   81   90 1   
    89   82   83 1   
    90   82   84 2   
    91   83   91 1   
    92   83   92 1   
    93   93   94 1   
    94   93  100 1   
    95   94   95 1   
    96   94   97 1   
    97   94  101 1   
    98   95   96 2   
    99   95  109 1   
   100   97   98 1   
   101   97   99 1   
   102   97  102 1   
   103   98  103 1   
   104   98  104 1   
   105   98  105 1   
   106   99  106 1   
   107   99  107 1   
   108   99  108 1   
   109  109  110 1   
   110  109  117 1   
   111  110  111 1   
   112  110  113 1   
   113  110  118 1   
   114  111  112 2   
   115  111  123 1   
   116  113  114 1   
   117  113  119 1   
   118  113  120 1   
   119  114  115 1   
   120  114  116 2   
   121  115  121 1   
   122  115  122 1   
   123  123  124 1   
   124  123  135 1   
   125  124  125 1   
   126  124  127 1   
   127  124  136 1   
   128  125  126 2   
   129  125  144 1   
   130  127  128 1   
   131  127  137 1   
   132  127  138 1   
   133  128  129 ar  
   134  128  130 ar  
   135  129  131 ar  
   136  129  139 1   
   137  130  132 ar  
   138  130  140 1   
   139  131  133 ar  
   140  131  141 1   
   141  132  133 ar  
   142  132  142 1   
   143  133  134 1   
   144  134  143 1   
   145  144  145 1   
   146  144  153 1   
   147  145  146 1   
   148  145  148 1   
   149  145  154 1   
   150  146  147 2   
   151  146  159 1   
   152  148  149 1   
   153  148  155 1   
   154  148  156 1   
   155  149  150 1   
   156  149  157 1   
   157  149  158 1   
   158  150  151 1   
   159  150  152 1   
   160  159  160 1   
   161  159  168 1   
   162  160  161 1   
   163  160  163 1   
   164  160  169 1   
   165  161  162 2   
   166  161  174 1   
   167  163  164 1   
   168  163  170 1   
   169  163  171 1   
   170  164  165 1   
   171  164  172 1   
   172  164  173 1   
   173  165  166 1   
   174  165  167 1   
   175  174  175 1   
   176  174  179 1   
   177  175  176 1   
   178  175  177 1   
   179  175  178 1   
   180  181  182 1   
   181  181  183 1   
   182  184  185 1   
   183  184  186 1   
   184  187  188 1   
   185  187  189 1   
@<TRIPOS>SUBSTRUCTURE
     1 MOL         1 TEMP              0 ****  ****    0 ROOT
