@<TRIPOS>MOLECULE
MOL
  189   185     1     0     0
SMALL
resp


@<TRIPOS>ATOM
      1 C1         -0.7580    4.8980    5.5050 c3        1 MOL     -0.438069
      2 C2         -1.3650    4.1580    4.2740 c         1 MOL      0.752246
      3 O1         -1.4290    2.9690    4.2100 o         1 MOL     -0.600421
      4 H1         -1.5600    5.3450    6.0910 hc        1 MOL      0.114547
      5 H2         -0.2100    4.1860    6.1230 hc        1 MOL      0.114547
      6 H3         -0.0800    5.6800    5.1610 hc        1 MOL      0.114547
      7 N1         -1.6130    4.8910    3.1250 n         1 MOL     -0.673717
      8 C3         -2.2000    4.2750    1.8960 c3        1 MOL      0.205902
      9 C4         -2.0750    5.1330    0.6180 c         1 MOL      0.446207
     10 O2         -2.2670    6.3590    0.6510 o         1 MOL     -0.568738
     11 C5         -3.7040    4.0900    2.1810 c3        1 MOL     -0.251918
     12 C6         -4.2980    2.9690    1.3270 c         1 MOL      0.774429
     13 O3         -5.5380    2.8440    1.4340 o         1 MOL     -0.716111
     14 O4         -3.5150    2.2760    0.5890 o         1 MOL     -0.716111
     15 H4         -1.3900    5.8740    3.1850 hn        1 MOL      0.314349
     16 H5         -1.7380    3.2880    1.8280 h1        1 MOL      0.112978
     17 H6         -4.2790    5.0120    2.0920 hc        1 MOL      0.060831
     18 H7         -3.8290    3.7370    3.2060 hc        1 MOL      0.060831
     19 N2         -1.8130    4.5160   -0.5510 n         1 MOL     -0.257174
     20 C7         -1.7260    5.2110   -1.8660 c3        1 MOL      0.007118
     21 C8         -2.8310    4.7350   -2.8230 c         1 MOL      0.578455
     22 O5         -3.4870    5.4420   -3.5510 o         1 MOL     -0.603560
     23 C9         -0.2440    5.0360   -2.4200 c3        1 MOL      0.246003
     24 C10         0.7860    5.3580   -1.3200 c3        1 MOL      0.131159
     25 C11        -0.0640    5.7320   -3.7370 c3        1 MOL     -0.250035
     26 C12         2.2580    5.2990   -1.8330 c3        1 MOL     -0.204377
     27 H8         -1.4760    3.5610   -0.4920 hn        1 MOL      0.156135
     28 H9         -1.8310    6.2970   -1.8420 h1        1 MOL      0.034684
     29 H10        -0.0560    4.0110   -2.7410 hc        1 MOL      0.011530
     30 H11         0.7000    4.6300   -0.5040 hc        1 MOL     -0.048636
     31 H12         0.5640    6.3620   -0.9640 hc        1 MOL     -0.048636
     32 H13        -0.8400    5.5190   -4.4690 hc        1 MOL      0.033213
     33 H14         0.0920    6.8090   -3.6090 hc        1 MOL      0.033213
     34 H15         0.8610    5.2860   -4.1050 hc        1 MOL      0.033213
     35 H16         2.4310    6.0980   -2.5650 hc        1 MOL      0.046447
     36 H17         2.9190    5.5630   -1.0160 hc        1 MOL      0.046447
     37 H18         2.3910    4.2900   -2.2220 hc        1 MOL      0.046447
     38 N3         -3.1850    3.4440   -2.6840 n         1 MOL     -0.271396
     39 C13        -3.9120    2.7320   -3.7080 c3        1 MOL     -0.039277
     40 C14        -5.2980    2.1230   -3.1770 c         1 MOL      0.346377
     41 O6         -5.9850    1.4270   -3.9960 o         1 MOL     -0.519623
     42 C15        -3.0390    1.6460   -4.3720 c3        1 MOL     -0.146455
     43 C16        -2.3290    0.7530   -3.4030 c         1 MOL      0.830565
     44 O7         -2.6150    0.7810   -2.1730 o         1 MOL     -0.738316
     45 O8         -1.3910    0.0960   -3.8920 o         1 MOL     -0.738316
     46 H19        -2.8360    2.9280   -1.8800 hn        1 MOL      0.069280
     47 H20        -4.2170    3.4060   -4.5100 h1        1 MOL      0.109954
     48 H21        -2.3150    2.1450   -5.0160 hc        1 MOL      0.040538
     49 H22        -3.6500    1.0300   -5.0360 hc        1 MOL      0.040538
     50 N4         -5.7310    2.3230   -1.9150 n         1 MOL     -0.109613
     51 C17        -7.0870    1.9540   -1.4430 c3        1 MOL     -0.355556
     52 C18        -7.5340    0.4720   -1.5210 c         1 MOL      0.530815
     53 O9         -8.7460    0.2180   -1.6770 o         1 MOL     -0.603227
     54 H23        -5.2210    2.9920   -1.3610 hn        1 MOL      0.213626
     55 H24        -7.7940    2.3950   -2.1350 h1        1 MOL      0.143253
     56 H25        -7.1540    2.2240   -0.3920 h1        1 MOL      0.143253
     57 N5         -6.5650   -0.4510   -1.5570 n         1 MOL     -0.110580
     58 C19        -6.7770   -1.8970   -1.7490 c3        1 MOL     -0.190908
     59 C20        -6.8700   -2.7660   -0.3830 c         1 MOL      0.397110
     60 O10        -6.8030   -3.9810   -0.5020 o         1 MOL     -0.463238
     61 C21        -5.6190   -2.4200   -2.6200 c3        1 MOL     -0.034163
     62 C22        -4.2200   -2.2780   -2.0750 c         1 MOL      0.752692
     63 O11        -4.0170   -1.6870   -0.9910 o         1 MOL     -0.705401
     64 O12        -3.3150   -2.7650   -2.7670 o         1 MOL     -0.705401
     65 H26        -5.6260   -0.1120   -1.3830 hn        1 MOL      0.136937
     66 H27        -7.6850   -2.1490   -2.2960 h1        1 MOL      0.139591
     67 H28        -5.6140   -2.1560   -3.6810 hc        1 MOL      0.027559
     68 H29        -5.7890   -3.5030   -2.6310 hc        1 MOL      0.027559
     69 N6         -6.9930   -2.1560    0.8060 n         1 MOL     -0.281936
     70 C23        -7.0440   -2.9640    2.0350 c3        1 MOL     -0.109139
     71 C24        -5.7670   -3.7980    2.4220 c         1 MOL      0.474425
     72 O13        -5.8720   -4.5650    3.3690 o         1 MOL     -0.572983
     73 H30        -7.0570   -1.1450    0.8090 hn        1 MOL      0.244631
     74 H31        -7.8460   -3.7020    1.9080 h1        1 MOL      0.086224
     75 H32        -7.4080   -2.3540    2.8610 h1        1 MOL      0.086224
     76 N7         -4.6070   -3.5610    1.8310 n         1 MOL     -0.172497
     77 C25        -3.2760   -4.2560    2.1570 c3        1 MOL      0.058707
     78 C26        -2.1640   -3.2310    1.9410 c         1 MOL      0.361087
     79 O14        -2.3080   -2.1450    1.3880 o         1 MOL     -0.338684
     80 C27        -3.1040   -5.5260    1.2810 c3        1 MOL     -0.233880
     81 C28        -3.0040   -5.0400   -0.2060 c3        1 MOL      0.071402
     82 C29        -2.8950   -6.1740   -1.2610 c         1 MOL      0.582508
     83 N8         -2.7800   -5.8240   -2.5030 n         1 MOL     -0.710675
     84 O15        -2.8690   -7.3460   -0.8460 o         1 MOL     -0.608775
     85 H33        -4.5920   -2.7920    1.1740 hn        1 MOL      0.065548
     86 H34        -3.3190   -4.5760    3.2030 h1        1 MOL      0.045958
     87 H35        -3.8510   -6.2990    1.4640 hc        1 MOL      0.089060
     88 H36        -2.1280   -5.9350    1.5330 hc        1 MOL      0.089060
     89 H37        -2.2220   -4.3000   -0.3530 hc        1 MOL     -0.003883
     90 H38        -3.8800   -4.4540   -0.4980 hc        1 MOL     -0.003883
     91 H39        -2.7820   -4.8510   -2.7830 hn        1 MOL      0.334764
     92 H40        -2.5460   -6.5070   -3.2020 hn        1 MOL      0.334764
     93 N9         -1.0470   -3.5060    2.5670 n         1 MOL     -0.277561
     94 C30         0.2170   -2.6250    2.7830 c3        1 MOL     -0.205336
     95 C31         1.4710   -2.9950    1.9280 c         1 MOL      0.494042
     96 O16         2.0630   -4.0630    2.0410 o         1 MOL     -0.575002
     97 C32         0.5360   -2.5680    4.3110 c3        1 MOL      0.273981
     98 C33         1.7320   -1.7380    4.6050 c3        1 MOL     -0.290108
     99 C34        -0.5890   -1.9530    5.1610 c3        1 MOL     -0.290108
    100 H41        -0.9190   -4.4680    2.8200 hn        1 MOL      0.252354
    101 H42        -0.0020   -1.5790    2.5510 h1        1 MOL      0.239216
    102 H43         0.6550   -3.5710    4.7170 hc        1 MOL     -0.034674
    103 H44         2.6180   -2.3350    4.3710 hc        1 MOL      0.056023
    104 H45         1.8470   -0.8570    3.9730 hc        1 MOL      0.056023
    105 H46         1.7490   -1.5580    5.6800 hc        1 MOL      0.056023
    106 H47        -1.5000   -2.5090    4.9680 hc        1 MOL      0.056023
    107 H48        -0.3510   -2.0630    6.2270 hc        1 MOL      0.056023
    108 H49        -0.7910   -0.9070    4.9430 hc        1 MOL      0.056023
    109 N10         1.9210   -2.0950    1.0240 n         1 MOL     -0.069542
    110 C35         2.9450   -2.1710    0.0040 c3        1 MOL     -0.018934
    111 C36         4.2140   -1.8450    0.7650 c         1 MOL      0.291885
    112 O17         4.2300   -1.1570    1.7820 o         1 MOL     -0.343808
    113 C37         2.6180   -1.2060   -1.0980 c3        1 MOL     -0.144333
    114 C38         3.6130   -1.3180   -2.1750 c         1 MOL      0.632559
    115 N11         3.4240   -2.2650   -3.0970 n         1 MOL     -0.789320
    116 O18         4.6960   -0.7660   -2.1960 o         1 MOL     -0.553711
    117 H50         1.3250   -1.2810    1.0670 hn        1 MOL     -0.029876
    118 H51         3.0600   -3.1840   -0.3610 h1        1 MOL      0.066783
    119 H52         2.6600   -0.2530   -0.5790 hc        1 MOL      0.087017
    120 H53         1.6190   -1.3280   -1.5110 hc        1 MOL      0.087017
    121 H54         2.5390   -2.7620   -3.1150 hn        1 MOL      0.368863
    122 H55         4.0400   -2.1450   -3.8890 hn        1 MOL      0.368863
    123 N12         5.3290   -2.2860    0.2400 n         1 MOL     -0.110150
    124 C39         6.6290   -1.9950    0.8630 c3        1 MOL     -0.049610
    125 C40         6.8550   -0.4730    0.9530 c         1 MOL      0.413459
    126 O19         7.3020    0.0260    1.9420 o         1 MOL     -0.495297
    127 C41         7.6990   -2.6920    0.0180 c3        1 MOL     -0.154194
    128 C42         7.3480   -3.0110   -1.4320 ca        1 MOL     -0.052918
    129 C43         6.6200   -4.1940   -1.7560 ca        1 MOL     -0.021947
    130 C44         7.8960   -2.1960   -2.4940 ca        1 MOL     -0.021947
    131 C45         6.3170   -4.4590   -3.1170 ca        1 MOL     -0.406776
    132 C46         7.4990   -2.4620   -3.8530 ca        1 MOL     -0.406776
    133 C47         6.7590   -3.6120   -4.1540 ca        1 MOL      0.386680
    134 O20         6.3310   -3.7420   -5.3820 oh        1 MOL     -0.423234
    135 H56         5.3400   -2.9060   -0.5610 hn        1 MOL      0.105213
    136 H57         6.7030   -2.2810    1.9060 h1        1 MOL      0.089210
    137 H58         8.0930   -3.6290    0.4250 hc        1 MOL      0.087019
    138 H59         8.6230   -2.1180   -0.0620 hc        1 MOL      0.087019
    139 H60         6.2930   -4.9340   -1.0330 ha        1 MOL      0.097144
    140 H61         8.5510   -1.3540   -2.3350 ha        1 MOL      0.097144
    141 H62         5.6060   -5.2510   -3.2860 ha        1 MOL      0.175156
    142 H63         7.8820   -1.8460   -4.6580 ha        1 MOL      0.175156
    143 H64         5.8210   -4.5490   -5.4440 ho        1 MOL      0.313933
    144 N13         6.3680    0.2790   -0.0860 n         1 MOL     -0.372289
    145 C48         6.2550    1.7580   -0.1090 c3        1 MOL     -0.101430
    146 C49         5.2020    2.3950    0.8430 c         1 MOL      0.448766
    147 O21         5.0410    3.6010    0.9220 o         1 MOL     -0.574618
    148 C50         6.0100    2.1810   -1.5750 c3        1 MOL      0.143351
    149 C51         7.0450    1.6430   -2.6130 c3        1 MOL     -0.219939
    150 C52         8.5460    1.8910   -2.2380 c         1 MOL      0.720615
    151 O22         9.2650    0.9860   -1.7440 o         1 MOL     -0.727643
    152 O23         8.9700    3.0410   -2.4000 o         1 MOL     -0.727643
    153 H65         6.0550   -0.2520   -0.8840 hn        1 MOL      0.490413
    154 H66         7.2230    2.2050    0.1340 h1        1 MOL      0.166464
    155 H67         6.0410    3.2670   -1.5980 hc        1 MOL     -0.037429
    156 H68         4.9700    1.9340   -1.7730 hc        1 MOL     -0.037429
    157 H69         6.8220    1.9870   -3.6210 hc        1 MOL      0.030545
    158 H70         6.9490    0.5560   -2.6030 hc        1 MOL      0.030545
    159 N14         4.6190    1.6040    1.7120 n         1 MOL      0.056342
    160 C53         3.6020    2.0360    2.7430 c3        1 MOL     -0.067200
    161 C54         3.9880    1.6890    4.1820 c         1 MOL      0.431150
    162 O24         3.7450    2.5340    5.0350 o         1 MOL     -0.555300
    163 C55         2.1550    1.4900    2.4450 c3        1 MOL      0.018140
    164 C56         1.5270    2.1490    1.1840 c3        1 MOL     -0.195857
    165 C57         0.3740    1.3820    0.5870 c         1 MOL      0.791789
    166 O25        -0.4360    1.9390   -0.1780 o         1 MOL     -0.735538
    167 O26         0.2370    0.1660    0.8490 o         1 MOL     -0.735538
    168 H71         4.9050    0.6330    1.8180 hn        1 MOL     -0.269518
    169 H72         3.4690    3.1230    2.7320 h1        1 MOL      0.076082
    170 H73         1.5210    1.6480    3.3160 hc        1 MOL      0.044230
    171 H74         2.3570    0.4200    2.3220 hc        1 MOL      0.044230
    172 H75         2.2550    2.3840    0.4010 hc        1 MOL      0.077864
    173 H76         1.2370    3.1330    1.5450 hc        1 MOL      0.077864
    174 N15         4.6220    0.5290    4.3500 n         1 MOL     -0.044064
    175 C58         5.2050    0.1830    5.5960 c3        1 MOL     -0.317463
    176 H77         5.9620   -0.5850    5.4420 h1        1 MOL      0.099341
    177 H78         5.6670    1.0650    6.0380 h1        1 MOL      0.099341
    178 H79         4.4330   -0.1980    6.2650 h1        1 MOL      0.099341
    179 H80         4.7210   -0.0930    3.5540 hn        1 MOL      0.256083
    180 Ca1        -2.2930    0.0430    0.1250 Ca        1 MOL      1.765101
    181 O27        -1.9380    0.6850    2.8870 oh        1 MOL     -0.915525
    182 O28        -1.1440   -1.7070   -1.5900 oh        1 MOL     -0.915525
    183 H81        -1.6000    1.5000    3.2400 ho        1 MOL      0.422169
    184 H82        -0.9210   -1.1340   -2.3250 ho        1 MOL      0.422169
    185 H83        -2.5600    0.3750    3.5460 ho        1 MOL      0.422169
    186 H84        -1.8320   -2.2740   -1.9300 ho        1 MOL      0.422169
    187 O29        -4.3540   -0.3530    1.8420 oh        1 MOL     -0.915525
    188 H85        -4.4530   -0.8120    2.6730 ho        1 MOL      0.422169
    189 H86        -5.2110    0.0430    1.6840 ho        1 MOL      0.422169
@<TRIPOS>BOND
     1    1    2 1   
     2    1    4 1   
     3    1    5 1   
     4    1    6 1   
     5    2    3 2   
     6    2    7 1   
     7    7    8 1   
     8    7   15 1   
     9    8    9 1   
    10    8   11 1   
    11    8   16 1   
    12    9   10 2   
    13    9   19 1   
    14   11   12 1   
    15   11   17 1   
    16   11   18 1   
    17   12   13 1   
    18   12   14 1   
    19   19   20 1   
    20   19   27 1   
    21   20   21 1   
    22   20   23 1   
    23   20   28 1   
    24   21   22 2   
    25   21   38 1   
    26   23   24 1   
    27   23   25 1   
    28   23   29 1   
    29   24   26 1   
    30   24   30 1   
    31   24   31 1   
    32   25   32 1   
    33   25   33 1   
    34   25   34 1   
    35   26   35 1   
    36   26   36 1   
    37   26   37 1   
    38   38   39 1   
    39   38   46 1   
    40   39   40 1   
    41   39   42 1   
    42   39   47 1   
    43   40   41 2   
    44   40   50 1   
    45   42   43 1   
    46   42   48 1   
    47   42   49 1   
    48   43   44 1   
    49   43   45 1   
    50   50   51 1   
    51   50   54 1   
    52   51   52 1   
    53   51   55 1   
    54   51   56 1   
    55   52   53 2   
    56   52   57 1   
    57   57   58 1   
    58   57   65 1   
    59   58   59 1   
    60   58   61 1   
    61   58   66 1   
    62   59   60 2   
    63   59   69 1   
    64   61   62 1   
    65   61   67 1   
    66   61   68 1   
    67   62   63 1   
    68   62   64 1   
    69   69   70 1   
    70   69   73 1   
    71   70   71 1   
    72   70   74 1   
    73   70   75 1   
    74   71   72 2   
    75   71   76 1   
    76   76   77 1   
    77   76   85 1   
    78   77   78 1   
    79   77   80 1   
    80   77   86 1   
    81   78   79 2   
    82   78   93 1   
    83   80   81 1   
    84   80   87 1   
    85   80   88 1   
    86   81   82 1   
    87   81   89 1   
    88   81   90 1   
    89   82   83 1   
    90   82   84 2   
    91   83   91 1   
    92   83   92 1   
    93   93   94 1   
    94   93  100 1   
    95   94   95 1   
    96   94   97 1   
    97   94  101 1   
    98   95   96 2   
    99   95  109 1   
   100   97   98 1   
   101   97   99 1   
   102   97  102 1   
   103   98  103 1   
   104   98  104 1   
   105   98  105 1   
   106   99  106 1   
   107   99  107 1   
   108   99  108 1   
   109  109  110 1   
   110  109  117 1   
   111  110  111 1   
   112  110  113 1   
   113  110  118 1   
   114  111  112 2   
   115  111  123 1   
   116  113  114 1   
   117  113  119 1   
   118  113  120 1   
   119  114  115 1   
   120  114  116 2   
   121  115  121 1   
   122  115  122 1   
   123  123  124 1   
   124  123  135 1   
   125  124  125 1   
   126  124  127 1   
   127  124  136 1   
   128  125  126 2   
   129  125  144 1   
   130  127  128 1   
   131  127  137 1   
   132  127  138 1   
   133  128  129 ar  
   134  128  130 ar  
   135  129  131 ar  
   136  129  139 1   
   137  130  132 ar  
   138  130  140 1   
   139  131  133 ar  
   140  131  141 1   
   141  132  133 ar  
   142  132  142 1   
   143  133  134 1   
   144  134  143 1   
   145  144  145 1   
   146  144  153 1   
   147  145  146 1   
   148  145  148 1   
   149  145  154 1   
   150  146  147 2   
   151  146  159 1   
   152  148  149 1   
   153  148  155 1   
   154  148  156 1   
   155  149  150 1   
   156  149  157 1   
   157  149  158 1   
   158  150  151 1   
   159  150  152 1   
   160  159  160 1   
   161  159  168 1   
   162  160  161 1   
   163  160  163 1   
   164  160  169 1   
   165  161  162 2   
   166  161  174 1   
   167  163  164 1   
   168  163  170 1   
   169  163  171 1   
   170  164  165 1   
   171  164  172 1   
   172  164  173 1   
   173  165  166 1   
   174  165  167 1   
   175  174  175 1   
   176  174  179 1   
   177  175  176 1   
   178  175  177 1   
   179  175  178 1   
   180  181  183 1   
   181  181  185 1   
   182  182  184 1   
   183  182  186 1   
   184  187  188 1   
   185  187  189 1   
@<TRIPOS>SUBSTRUCTURE
     1 MOL         1 TEMP              0 ****  ****    0 ROOT
