@<TRIPOS>MOLECULE
MOL
  172   171     1     0     0
SMALL
resp


@<TRIPOS>ATOM
      1 C1         -0.2400    2.9590    5.7920 c3        1 MOL     -0.359092
      2 C2         -0.5380    2.6740    4.3690 c         1 MOL      0.844106
      3 O1          0.1920    2.9790    3.4370 o         1 MOL     -0.635352
      4 H1         -1.1730    3.0320    6.3510 hc        1 MOL      0.085084
      5 H2          0.3690    2.1560    6.2050 hc        1 MOL      0.085084
      6 H3          0.3020    3.9030    5.8680 hc        1 MOL      0.085084
      7 N1         -1.8180    2.1910    4.0900 n         1 MOL     -0.716866
      8 C3         -2.2020    1.7760    2.7840 c3        1 MOL      0.284358
      9 C4         -2.6450    3.0280    2.0620 c         1 MOL      0.488899
     10 O2         -3.7230    3.5440    2.3010 o         1 MOL     -0.552076
     11 C5         -3.2350    0.6080    2.8210 c3        1 MOL     -0.402949
     12 C6         -3.6580    0.1330    1.4250 c         1 MOL      0.922823
     13 O3         -4.5620   -0.7160    1.3110 o         1 MOL     -0.742163
     14 O4         -3.2800    0.8600    0.4870 o         1 MOL     -0.742163
     15 H4         -2.4240    2.0080    4.8800 hn        1 MOL      0.327530
     16 H5         -1.2660    1.3990    2.3660 h1        1 MOL      0.002805
     17 H6         -4.1550    0.8260    3.3760 hc        1 MOL      0.091862
     18 H7         -2.7990   -0.2730    3.2960 hc        1 MOL      0.091862
     19 N2         -1.7530    3.6460    1.2630 n         1 MOL     -0.280452
     20 C7         -1.8150    5.0330    0.7180 c3        1 MOL     -0.138101
     21 C8         -2.9560    5.2680   -0.3010 c         1 MOL      0.614316
     22 O5         -3.3250    6.3970   -0.6010 o         1 MOL     -0.589049
     23 C9         -0.4520    5.3130    0.0790 c3        1 MOL     -0.085714
     24 H8         -0.8440    3.2050    1.1620 hn        1 MOL      0.382625
     25 H9         -1.8840    5.7530    1.5310 h1        1 MOL      0.088350
     26 H10         0.4310    5.1330    0.7040 hc        1 MOL      0.033557
     27 H11        -0.3420    4.6490   -0.7790 hc        1 MOL      0.033557
     28 H12        -0.4310    6.3130   -0.3450 hc        1 MOL      0.033557
     29 N3         -3.6840    4.2030   -0.6910 n         1 MOL     -0.307623
     30 C10        -4.7450    4.1730   -1.6330 c3        1 MOL      0.098323
     31 C11        -5.8980    3.1930   -1.3100 c         1 MOL      0.310718
     32 O6         -6.9720    3.2160   -1.8990 o         1 MOL     -0.524568
     33 C12        -4.2020    3.8480   -3.0280 c3        1 MOL     -0.199147
     34 C13        -3.5760    2.4360   -3.3030 c         1 MOL      0.805131
     35 O7         -3.4740    1.6110   -2.3740 o         1 MOL     -0.720964
     36 O8         -3.3740    2.0850   -4.4940 o         1 MOL     -0.720964
     37 H13        -3.3050    3.3120   -0.3990 hn        1 MOL      0.159072
     38 H14        -5.1050    5.1980   -1.6780 h1        1 MOL      0.079922
     39 H15        -3.4540    4.5620   -3.3870 hc        1 MOL      0.033870
     40 H16        -5.0720    3.8060   -3.6870 hc        1 MOL      0.033870
     41 N4         -5.7880    2.5730   -0.1600 n         1 MOL      0.020923
     42 C14        -6.7330    1.7330    0.5650 c3        1 MOL     -0.231004
     43 C15        -7.2940    0.5160   -0.1490 c         1 MOL      0.507623
     44 O9         -8.4380    0.0880    0.0180 o         1 MOL     -0.578648
     45 H17        -4.9530    2.7730    0.3790 hn        1 MOL      0.027666
     46 H18        -7.6440    2.2940    0.7820 h1        1 MOL      0.100622
     47 H19        -6.1390    1.4520    1.4410 h1        1 MOL      0.100622
     48 N5         -6.4150   -0.0110   -1.0050 n         1 MOL     -0.207714
     49 C16        -6.8260   -1.1080   -1.8370 c3        1 MOL     -0.110027
     50 C17        -6.8090   -2.4840   -1.0400 c         1 MOL      0.495780
     51 O10        -7.3080   -3.4840   -1.4800 o         1 MOL     -0.572503
     52 C18        -5.9290   -1.1570   -3.0920 c3        1 MOL     -0.165619
     53 C19        -4.6240   -1.8560   -2.8380 c         1 MOL      0.560657
     54 N6         -4.1920   -2.7230   -3.7490 n         1 MOL     -0.639603
     55 O11        -3.8720   -1.6270   -1.9240 o         1 MOL     -0.656993
     56 H20        -5.5070    0.4220   -1.0470 hn        1 MOL      0.288257
     57 H21        -7.8050   -0.8800   -2.2710 h1        1 MOL      0.120245
     58 H22        -5.7080   -0.1210   -3.3600 hc        1 MOL      0.074701
     59 H23        -6.3680   -1.6680   -3.9520 hc        1 MOL      0.074701
     60 H24        -4.6550   -2.8020   -4.6410 hn        1 MOL      0.326187
     61 H25        -3.3160   -3.1850   -3.5620 hn        1 MOL      0.326187
     62 N7         -6.4010   -2.3790    0.1930 n         1 MOL     -0.170552
     63 C20        -6.5390   -3.5180    1.1400 c3        1 MOL     -0.102689
     64 C21        -5.2170   -4.2580    1.3180 c         1 MOL      0.583935
     65 O12        -5.1860   -5.3560    1.8390 o         1 MOL     -0.615172
     66 H26        -5.9030   -1.5410    0.4580 hn        1 MOL      0.224420
     67 H27        -7.2510   -4.2400    0.7500 h1        1 MOL      0.076794
     68 H28        -6.9890   -3.1800    2.0690 h1        1 MOL      0.076794
     69 N8         -4.0780   -3.6520    0.9460 n         1 MOL     -0.184978
     70 C22        -2.7260   -4.1900    1.1630 c3        1 MOL     -0.092191
     71 C23        -1.6680   -3.0880    1.1420 c         1 MOL      0.705419
     72 O13        -1.8270   -1.9810    0.5510 o         1 MOL     -0.736624
     73 C24        -2.2860   -5.2300    0.0950 c3        1 MOL      0.411911
     74 C25        -2.6320   -6.6640    0.4280 c3        1 MOL     -0.439553
     75 O14        -2.8620   -4.8420   -1.1250 oh        1 MOL     -0.552407
     76 H29        -4.1830   -2.6460    0.8030 hn        1 MOL      0.121087
     77 H30        -2.6980   -4.6190    2.1570 h1        1 MOL      0.035226
     78 H31        -1.1950   -5.2040    0.0270 h1        1 MOL     -0.012608
     79 H32        -2.6010   -3.9320   -1.2660 ho        1 MOL      0.319277
     80 H33        -3.6840   -6.8530    0.6400 hc        1 MOL      0.113156
     81 H34        -2.5380   -7.2960   -0.4550 hc        1 MOL      0.113156
     82 H35        -1.9330   -7.0570    1.1600 hc        1 MOL      0.113156
     83 N9         -0.6760   -3.2490    1.9860 n         1 MOL     -0.457550
     84 C26         0.4170   -2.3420    2.1780 c3        1 MOL     -0.088966
     85 C27         1.4550   -2.7630    1.1140 c         1 MOL      0.575282
     86 O15         1.7280   -3.9180    1.0100 o         1 MOL     -0.595720
     87 C28         1.0130   -2.3860    3.6050 c3        1 MOL      0.159343
     88 C29        -0.0450   -1.8650    4.6600 c3        1 MOL      0.171703
     89 C30         2.4060   -1.6960    3.8650 c3        1 MOL     -0.164954
     90 C31         0.0960   -2.5400    6.0430 c3        1 MOL     -0.217615
     91 H36        -0.7770   -4.1280    2.4880 hn        1 MOL      0.266256
     92 H37         0.1590   -1.3070    1.9440 h1        1 MOL      0.155971
     93 H38         1.2110   -3.4230    3.8700 hc        1 MOL     -0.012218
     94 H39        -1.0640   -2.1480    4.3840 hc        1 MOL     -0.045413
     95 H40         0.0550   -0.7750    4.6360 hc        1 MOL     -0.045413
     96 H41         3.2090   -2.1550    3.2940 hc        1 MOL      0.023177
     97 H42         2.4110   -0.6520    3.5630 hc        1 MOL      0.023177
     98 H43         2.5820   -1.7110    4.9410 hc        1 MOL      0.023177
     99 H44         1.1390   -2.7690    6.2490 hc        1 MOL      0.041672
    100 H45        -0.4340   -1.9810    6.8060 hc        1 MOL      0.041672
    101 H46        -0.3350   -3.5360    5.9870 hc        1 MOL      0.041672
    102 N10         1.8350   -1.8780    0.2150 n         1 MOL     -0.282482
    103 C32         2.8340   -2.0680   -0.8460 c3        1 MOL      0.028522
    104 C33         4.2090   -1.7920   -0.3700 c         1 MOL      0.480488
    105 O16         4.4750   -1.3610    0.7260 o         1 MOL     -0.374555
    106 C34         2.5320   -1.2270   -2.0680 c3        1 MOL     -0.355517
    107 C35         1.1490   -1.5200   -2.7250 c         1 MOL      0.764807
    108 O17         0.2260   -0.7850   -2.4810 o         1 MOL     -0.706136
    109 O18         1.0390   -2.4480   -3.5580 o         1 MOL     -0.706136
    110 H47         1.5350   -0.9410    0.4540 hn        1 MOL      0.164766
    111 H48         2.8080   -3.1040   -1.1830 h1        1 MOL      0.091262
    112 H49         3.2740   -1.4250   -2.8380 hc        1 MOL      0.099268
    113 H50         2.6400   -0.1860   -1.7610 hc        1 MOL      0.099268
    114 N11         5.2090   -2.0060   -1.2200 n         1 MOL     -0.622056
    115 C36         6.6280   -1.6140   -0.8860 c3        1 MOL      0.434461
    116 C37         6.8660   -0.1010   -0.6250 c         1 MOL      0.319621
    117 O19         7.3550    0.1840    0.4740 o         1 MOL     -0.523145
    118 C38         7.5430   -2.2780   -1.9230 c3        1 MOL     -0.357681
    119 C39         9.0080   -2.0310   -1.6750 ca        1 MOL      0.292075
    120 C40         9.6650   -2.7690   -0.6640 ca        1 MOL     -0.309286
    121 C41         9.7810   -1.1410   -2.4960 ca        1 MOL     -0.309286
    122 C42        11.0060   -2.5330   -0.4190 ca        1 MOL      0.001818
    123 C43        11.1240   -0.9020   -2.2040 ca        1 MOL      0.001818
    124 C44        11.7360   -1.6060   -1.1820 ca        1 MOL     -0.220266
    125 H51         5.0660   -2.3450   -2.1510 hn        1 MOL      0.319246
    126 H52         6.8610   -2.0830    0.0650 h1        1 MOL      0.032333
    127 H53         7.3220   -1.9310   -2.9320 hc        1 MOL      0.087342
    128 H54         7.4280   -3.3550   -1.7960 hc        1 MOL      0.087342
    129 H55         9.1650   -3.5340   -0.0830 ha        1 MOL      0.152513
    130 H56         9.3080   -0.5670   -3.2860 ha        1 MOL      0.152513
    131 H57        11.4820   -3.0330    0.4200 ha        1 MOL      0.087931
    132 H58        11.7400   -0.2160   -2.7760 ha        1 MOL      0.087931
    133 H59        12.7500   -1.4390   -0.8250 ha        1 MOL      0.117682
    134 N12         6.5700    0.9050   -1.4180 n         1 MOL      0.008926
    135 C45         6.9770    2.3200   -1.2740 c3        1 MOL     -0.128908
    136 C46         6.1210    3.0370   -0.1840 c         1 MOL      0.502744
    137 O20         6.5640    3.8880    0.5420 o         1 MOL     -0.531074
    138 C47         6.6650    2.9800   -2.6310 c3        1 MOL     -0.161030
    139 C48         5.4700    2.1530   -3.2160 c3        1 MOL      0.023326
    140 C49         5.8200    0.6810   -2.6660 c3        1 MOL     -0.073777
    141 H60         8.0460    2.4370   -1.0930 h1        1 MOL      0.111077
    142 H61         6.4290    4.0360   -2.5040 hc        1 MOL      0.068700
    143 H62         7.5370    2.8620   -3.2650 hc        1 MOL      0.068700
    144 H63         4.4740    2.4210   -2.8960 hc        1 MOL      0.029916
    145 H64         5.5510    2.2790   -4.2950 hc        1 MOL      0.029916
    146 H65         4.8220    0.2660   -2.4950 h1        1 MOL      0.028132
    147 H66         6.3380    0.0470   -3.3750 h1        1 MOL      0.028132
    148 N13         4.9770    2.4690    0.0240 n         1 MOL     -0.266117
    149 C50         4.0510    2.6570    1.1660 c3        1 MOL     -0.067244
    150 C51         4.6240    2.1070    2.4610 c         1 MOL      0.405120
    151 O21         4.7030    2.8240    3.4810 o         1 MOL     -0.553897
    152 C52         2.6450    2.0690    0.8540 c3        1 MOL     -0.037536
    153 C53         1.9630    2.2610   -0.5390 c3        1 MOL      0.185792
    154 C54         0.5110    1.6410   -0.4680 c         1 MOL      0.596902
    155 O22         0.2530    0.5990    0.1050 o         1 MOL     -0.740208
    156 O23        -0.4070    2.1390   -1.1150 o         1 MOL     -0.740208
    157 H67         4.7970    1.7330   -0.6410 hn        1 MOL      0.178961
    158 H68         3.8520    3.7280    1.2180 h1        1 MOL      0.099611
    159 H69         1.9160    2.3420    1.6170 hc        1 MOL      0.021286
    160 H70         2.8960    0.9990    0.8150 hc        1 MOL      0.021286
    161 H71         2.4350    1.8340   -1.4190 hc        1 MOL     -0.044541
    162 H72         1.8800    3.3300   -0.7480 hc        1 MOL     -0.044541
    163 N14         5.2050    0.8800    2.4920 n         1 MOL      0.153519
    164 C55         6.0260    0.3680    3.5880 c3        1 MOL     -0.248594
    165 H73         6.3460   -0.6480    3.3580 h1        1 MOL      0.085978
    166 H74         6.9030    1.0050    3.7150 h1        1 MOL      0.085978
    167 H75         5.4440    0.3660    4.5090 h1        1 MOL      0.085978
    168 H76         5.1500    0.3060    1.6680 hn        1 MOL     -0.072818
    169 Ca1        -1.8750   -0.0640   -1.3550 Ca        1 MOL      1.768957
    170 O24        -1.9270   -0.1480   -4.0960 oh        1 MOL     -0.794682
    171 H77        -2.0340   -0.7290   -4.8490 ho        1 MOL      0.367892
    172 H78        -2.6260    0.5080   -4.1900 ho        1 MOL      0.367892
@<TRIPOS>BOND
     1    1    2 1   
     2    1    4 1   
     3    1    5 1   
     4    1    6 1   
     5    2    3 2   
     6    2    7 1   
     7    7    8 1   
     8    7   15 1   
     9    8    9 1   
    10    8   11 1   
    11    8   16 1   
    12    9   10 2   
    13    9   19 1   
    14   11   12 1   
    15   11   17 1   
    16   11   18 1   
    17   12   13 1   
    18   12   14 1   
    19   19   20 1   
    20   19   24 1   
    21   20   21 1   
    22   20   23 1   
    23   20   25 1   
    24   21   22 2   
    25   21   29 1   
    26   23   26 1   
    27   23   27 1   
    28   23   28 1   
    29   29   30 1   
    30   29   37 1   
    31   30   31 1   
    32   30   33 1   
    33   30   38 1   
    34   31   32 2   
    35   31   41 1   
    36   33   34 1   
    37   33   39 1   
    38   33   40 1   
    39   34   35 1   
    40   34   36 1   
    41   41   42 1   
    42   41   45 1   
    43   42   43 1   
    44   42   46 1   
    45   42   47 1   
    46   43   44 2   
    47   43   48 1   
    48   48   49 1   
    49   48   56 1   
    50   49   50 1   
    51   49   52 1   
    52   49   57 1   
    53   50   51 2   
    54   50   62 1   
    55   52   53 1   
    56   52   58 1   
    57   52   59 1   
    58   53   54 1   
    59   53   55 2   
    60   54   60 1   
    61   54   61 1   
    62   62   63 1   
    63   62   66 1   
    64   63   64 1   
    65   63   67 1   
    66   63   68 1   
    67   64   65 2   
    68   64   69 1   
    69   69   70 1   
    70   69   76 1   
    71   70   71 1   
    72   70   73 1   
    73   70   77 1   
    74   71   72 2   
    75   71   83 1   
    76   73   74 1   
    77   73   75 1   
    78   73   78 1   
    79   74   80 1   
    80   74   81 1   
    81   74   82 1   
    82   75   79 1   
    83   83   84 1   
    84   83   91 1   
    85   84   85 1   
    86   84   87 1   
    87   84   92 1   
    88   85   86 2   
    89   85  102 1   
    90   87   88 1   
    91   87   89 1   
    92   87   93 1   
    93   88   90 1   
    94   88   94 1   
    95   88   95 1   
    96   89   96 1   
    97   89   97 1   
    98   89   98 1   
    99   90   99 1   
   100   90  100 1   
   101   90  101 1   
   102  102  103 1   
   103  102  110 1   
   104  103  104 1   
   105  103  106 1   
   106  103  111 1   
   107  104  105 2   
   108  104  114 1   
   109  106  107 1   
   110  106  112 1   
   111  106  113 1   
   112  107  108 1   
   113  107  109 1   
   114  114  115 1   
   115  114  125 1   
   116  115  116 1   
   117  115  118 1   
   118  115  126 1   
   119  116  117 2   
   120  116  134 1   
   121  118  119 1   
   122  118  127 1   
   123  118  128 1   
   124  119  120 ar  
   125  119  121 ar  
   126  120  122 ar  
   127  120  129 1   
   128  121  123 ar  
   129  121  130 1   
   130  122  124 ar  
   131  122  131 1   
   132  123  124 ar  
   133  123  132 1   
   134  124  133 1   
   135  134  135 1   
   136  134  140 1   
   137  135  136 1   
   138  135  138 1   
   139  135  141 1   
   140  136  137 2   
   141  136  148 1   
   142  138  139 1   
   143  138  142 1   
   144  138  143 1   
   145  139  140 1   
   146  139  144 1   
   147  139  145 1   
   148  140  146 1   
   149  140  147 1   
   150  148  149 1   
   151  148  157 1   
   152  149  150 1   
   153  149  152 1   
   154  149  158 1   
   155  150  151 2   
   156  150  163 1   
   157  152  153 1   
   158  152  159 1   
   159  152  160 1   
   160  153  154 1   
   161  153  161 1   
   162  153  162 1   
   163  154  155 1   
   164  154  156 1   
   165  163  164 1   
   166  163  168 1   
   167  164  165 1   
   168  164  166 1   
   169  164  167 1   
   170  170  171 1   
   171  170  172 1   
@<TRIPOS>SUBSTRUCTURE
     1 MOL         1 TEMP              0 ****  ****    0 ROOT
