@<TRIPOS>MOLECULE
MOL
  189   185     1     0     0
SMALL
resp


@<TRIPOS>ATOM
      1 C1          0.9600    2.4350    4.9350 c3        1 MOL     -0.359423
      2 C2          0.2840    2.3390    3.5400 c         1 MOL      0.492756
      3 O1          0.8890    2.7990    2.5730 o         1 MOL     -0.536501
      4 H1          0.2170    2.2520    5.7110 hc        1 MOL      0.099540
      5 H2          1.7520    1.6900    5.0080 hc        1 MOL      0.099540
      6 H3          1.3830    3.4310    5.0660 hc        1 MOL      0.099540
      7 N1         -0.8730    1.7520    3.4080 n         1 MOL     -0.362104
      8 C3         -1.8340    1.5810    2.2620 c3        1 MOL      0.088449
      9 C4         -2.5770    2.8340    1.8800 c         1 MOL      0.420640
     10 O2         -3.7580    3.1110    2.1790 o         1 MOL     -0.465561
     11 C5         -2.8670    0.4850    2.6670 c3        1 MOL     -0.545866
     12 C6         -3.8350    0.1180    1.5240 c         1 MOL      0.744284
     13 O3         -3.5910    0.3270    0.3550 o         1 MOL     -0.606728
     14 O4         -4.9290   -0.3170    1.8170 o         1 MOL     -0.606728
     15 H4         -1.2240    1.3480    4.2600 hn        1 MOL      0.278835
     16 H5         -1.2350    1.2080    1.4360 h1        1 MOL      0.083947
     17 H6         -3.4940    0.9120    3.4580 hc        1 MOL      0.147674
     18 H7         -2.3970   -0.4590    2.9200 hc        1 MOL      0.147674
     19 N2         -1.8260    3.6710    1.1790 n         1 MOL     -0.350393
     20 C7         -2.0960    5.0600    0.8350 c3        1 MOL      0.026296
     21 C8         -3.1410    5.2290   -0.2810 c         1 MOL      0.549025
     22 O5         -3.6370    6.2800   -0.3700 o         1 MOL     -0.577632
     23 C9         -0.7950    5.7450    0.4240 c3        1 MOL     -0.300909
     24 C10        -0.0990    6.1820    1.7080 c3        1 MOL      0.256869
     25 C11         1.1760    7.0630    1.4230 c3        1 MOL      0.008813
     26 C12         1.7240    7.7650    2.6510 c3        1 MOL     -0.051200
     27 N3          2.5010    6.9210    3.5770 n4        1 MOL     -0.355849
     28 H8         -0.9620    3.2170    0.8990 hn        1 MOL      0.321685
     29 H9         -2.5260    5.5720    1.7010 h1        1 MOL      0.098571
     30 H10        -0.9210    6.7150   -0.0600 hc        1 MOL      0.085757
     31 H11        -0.0730    5.0840   -0.0440 hc        1 MOL      0.085757
     32 H12         0.3160    5.3020    2.2050 hc        1 MOL     -0.061495
     33 H13        -0.8410    6.6850    2.3480 hc        1 MOL     -0.061495
     34 H14         0.9410    7.8060    0.6530 hc        1 MOL      0.029126
     35 H15         1.9200    6.4390    0.9330 hc        1 MOL      0.029126
     36 H16         0.8670    8.1730    3.1760 hx        1 MOL      0.090695
     37 H17         2.2970    8.6130    2.2880 hx        1 MOL      0.090695
     38 H18         2.8750    7.5630    4.2510 hn        1 MOL      0.334833
     39 H19         1.8980    6.3320    4.1450 hn        1 MOL      0.334833
     40 H20         3.1540    6.2960    3.1380 hn        1 MOL      0.334833
     41 N4         -3.4530    4.1580   -0.9860 n         1 MOL     -0.288660
     42 C13        -4.4430    4.1410   -2.0710 c3        1 MOL      0.177762
     43 C14        -5.6990    3.3550   -1.6120 c         1 MOL      0.306144
     44 O6         -6.5910    3.0670   -2.3740 o         1 MOL     -0.526002
     45 C15        -3.8690    3.7160   -3.3770 c3        1 MOL     -0.234403
     46 C16        -2.9410    2.5260   -3.1840 c         1 MOL      0.772485
     47 O7         -3.0210    1.7630   -2.1390 o         1 MOL     -0.709421
     48 O8         -1.9860    2.4370   -4.0340 o         1 MOL     -0.709421
     49 H21        -2.9830    3.2770   -0.8140 hn        1 MOL      0.168666
     50 H22        -4.8740    5.1400   -2.1500 h1        1 MOL      0.053163
     51 H23        -3.2720    4.6050   -3.5980 hc        1 MOL      0.058297
     52 H24        -4.5950    3.6160   -4.1790 hc        1 MOL      0.058297
     53 N5         -5.6550    2.8250   -0.3860 n         1 MOL      0.018895
     54 C17        -6.7400    2.1810    0.3760 c3        1 MOL     -0.145514
     55 C18        -7.3700    0.9070   -0.2910 c         1 MOL      0.503457
     56 O9         -8.6270    0.7810   -0.2150 o         1 MOL     -0.555637
     57 H25        -4.8170    3.1550    0.0630 hn        1 MOL      0.013565
     58 H26        -7.4550    2.9720    0.5990 h1        1 MOL      0.085021
     59 H27        -6.2150    1.8360    1.2690 h1        1 MOL      0.085021
     60 N6         -6.5100   -0.0050   -0.8540 n         1 MOL     -0.177275
     61 C19        -7.0560   -1.2270   -1.5270 c3        1 MOL     -0.125561
     62 C20        -7.2260   -2.4100   -0.5590 c         1 MOL      0.385044
     63 O10        -7.9420   -3.4140   -0.8010 o         1 MOL     -0.529258
     64 C21        -6.0820   -1.4650   -2.7220 c3        1 MOL     -0.061600
     65 C22        -4.5570   -1.6010   -2.4730 c         1 MOL      0.694875
     66 O11        -4.0830   -2.1690   -1.4630 o         1 MOL     -0.698194
     67 O12        -3.8170   -1.0180   -3.3570 o         1 MOL     -0.698194
     68 H28        -5.5300    0.1060   -0.6550 hn        1 MOL      0.104328
     69 H29        -8.0060   -1.0760   -2.0450 h1        1 MOL      0.147856
     70 H30        -6.1260   -0.6710   -3.4620 hc        1 MOL      0.039271
     71 H31        -6.4120   -2.2880   -3.3500 hc        1 MOL      0.039271
     72 N7         -6.6110   -2.2670    0.6160 n         1 MOL     -0.043880
     73 C23        -6.5320   -3.2340    1.6440 c3        1 MOL     -0.092955
     74 C24        -5.4240   -4.2240    1.3020 c         1 MOL      0.501539
     75 O13        -5.5870   -5.3940    1.6070 o         1 MOL     -0.552822
     76 H32        -6.0090   -1.4560    0.6720 hn        1 MOL      0.084817
     77 H33        -7.4650   -3.7720    1.8290 h1        1 MOL      0.064074
     78 H34        -6.2780   -2.6470    2.5260 h1        1 MOL      0.064074
     79 N8         -4.3390   -3.7610    0.6810 n         1 MOL     -0.160544
     80 C25        -3.1010   -4.5930    0.5830 c3        1 MOL     -0.322886
     81 C26        -1.8370   -3.7170    0.7180 c         1 MOL      0.721212
     82 O14        -1.7620   -2.6150    0.1590 o         1 MOL     -0.573829
     83 C27        -3.1500   -5.5370   -0.6530 c3        1 MOL      0.455750
     84 C28        -4.4050   -6.3600   -0.8720 c3        1 MOL     -0.413818
     85 O15        -3.1660   -4.7440   -1.8360 oh        1 MOL     -0.646375
     86 H35        -4.3970   -2.8230    0.3150 hn        1 MOL      0.151277
     87 H36        -2.9420   -5.2740    1.4070 h1        1 MOL      0.094884
     88 H37        -2.3530   -6.2820   -0.5690 h1        1 MOL     -0.011351
     89 H38        -3.6220   -3.9370   -1.6130 ho        1 MOL      0.418091
     90 H39        -4.2370   -6.8540   -1.8250 hc        1 MOL      0.109393
     91 H40        -4.5160   -7.1280   -0.1090 hc        1 MOL      0.109393
     92 H41        -5.3520   -5.8460   -0.9930 hc        1 MOL      0.109393
     93 N9         -0.8360   -4.1220    1.4830 n         1 MOL     -0.686978
     94 C29         0.4220   -3.3040    1.7930 c3        1 MOL      0.039067
     95 C30         1.5710   -3.8380    0.9450 c         1 MOL      0.583238
     96 O16         1.9350   -5.0140    1.0050 o         1 MOL     -0.563335
     97 C31         0.7420   -3.3130    3.2850 c3        1 MOL      0.222153
     98 C32        -0.2570   -2.4150    4.0560 c3        1 MOL      0.033055
     99 C33         2.1630   -2.8290    3.5310 c3        1 MOL     -0.516538
    100 C34        -0.1910   -2.4650    5.6070 c3        1 MOL     -0.181179
    101 H42        -1.1110   -5.0430    1.8000 hn        1 MOL      0.338424
    102 H43         0.2720   -2.2720    1.4620 h1        1 MOL      0.060518
    103 H44         0.6220   -4.3540    3.5940 hc        1 MOL      0.018302
    104 H45        -1.2660   -2.4690    3.6700 hc        1 MOL      0.022675
    105 H46         0.0180   -1.3870    3.8450 hc        1 MOL      0.022675
    106 H47         2.8240   -3.5940    3.1120 hc        1 MOL      0.114498
    107 H48         2.2410   -1.8190    3.1260 hc        1 MOL      0.114498
    108 H49         2.3480   -2.6300    4.5910 hc        1 MOL      0.114498
    109 H50         0.7670   -2.1340    6.0020 hc        1 MOL      0.040799
    110 H51        -1.0270   -1.8610    5.9760 hc        1 MOL      0.040799
    111 H52        -0.3690   -3.5020    5.8880 hc        1 MOL      0.040799
    112 N10         2.2510   -2.9520    0.1940 n         1 MOL     -0.190734
    113 C35         3.4350   -3.2240   -0.6570 c3        1 MOL     -0.195386
    114 C36         4.8420   -2.9490    0.0170 c         1 MOL      0.476512
    115 O17         4.9390   -2.2630    1.0370 o         1 MOL     -0.436435
    116 C37         3.4010   -2.4680   -2.0040 c3        1 MOL      0.339142
    117 C38         2.2480   -2.9350   -2.8950 c3        1 MOL     -0.388899
    118 O18         3.1970   -1.1170   -1.7400 oh        1 MOL     -0.598597
    119 H53         1.8270   -2.0440    0.1090 hn        1 MOL      0.242690
    120 H54         3.4320   -4.2610   -0.9940 h1        1 MOL      0.086015
    121 H55         4.4070   -2.5270   -2.4270 h1        1 MOL     -0.000111
    122 H56         2.2550   -1.1090   -1.5460 ho        1 MOL      0.388648
    123 H57         1.9400   -2.2000   -3.6390 hc        1 MOL      0.101909
    124 H58         2.5950   -3.8680   -3.3460 hc        1 MOL      0.101909
    125 H59         1.3810   -3.0900   -2.2510 hc        1 MOL      0.101909
    126 N11         5.9250   -3.3710   -0.6470 n         1 MOL     -0.321834
    127 C39         7.2800   -3.1030   -0.0830 c3        1 MOL     -0.173962
    128 C40         7.6630   -1.6500   -0.2040 c         1 MOL      0.598302
    129 O19         8.5000   -1.1750    0.5270 o         1 MOL     -0.538073
    130 C41         8.3150   -3.9500   -0.8440 c3        1 MOL      0.175795
    131 C42         8.1400   -5.4490   -0.6760 c3        1 MOL     -0.302484
    132 O20         8.1860   -3.5580   -2.1760 oh        1 MOL     -0.649655
    133 H60         5.8380   -3.8110   -1.5560 hn        1 MOL      0.285079
    134 H61         7.3900   -3.3330    0.9760 h1        1 MOL      0.156319
    135 H62         9.3120   -3.5480   -0.6300 h1        1 MOL      0.064265
    136 H63         8.8640   -4.0610   -2.6470 ho        1 MOL      0.431632
    137 H64         8.2760   -5.6930    0.3800 hc        1 MOL      0.096589
    138 H65         7.1380   -5.7580   -0.9830 hc        1 MOL      0.096589
    139 H66         8.8340   -6.0430   -1.2600 hc        1 MOL      0.096589
    140 N12         6.9680   -0.9560   -1.1050 n         1 MOL     -0.326479
    141 C43         6.9980    0.5320   -1.2950 c3        1 MOL     -0.047002
    142 C44         6.2320    1.2440   -0.1940 c         1 MOL      0.356109
    143 O21         6.8660    2.0030    0.4760 o         1 MOL     -0.500591
    144 C45         6.3580    0.9210   -2.6690 c3        1 MOL     -0.119280
    145 C46         6.4290    2.4130   -2.8060 c3        1 MOL     -0.042300
    146 C47         5.9290    2.9360   -4.1840 c3        1 MOL      0.038871
    147 C48         6.4270    4.4120   -4.4210 c3        1 MOL      0.014253
    148 N13         7.4800    4.4890   -5.4520 n4        1 MOL     -0.459794
    149 H67         6.3550   -1.4510   -1.7250 hn        1 MOL      0.250488
    150 H68         8.0290    0.8270   -1.1140 h1        1 MOL      0.115937
    151 H69         5.3350    0.5480   -2.7580 hc        1 MOL      0.043342
    152 H70         6.9830    0.4890   -3.4480 hc        1 MOL      0.043342
    153 H71         7.4600    2.6830   -2.5810 hc        1 MOL      0.025473
    154 H72         5.8330    2.8210   -1.9870 hc        1 MOL      0.025473
    155 H73         4.8440    3.0190   -4.2000 hc        1 MOL      0.041443
    156 H74         6.1960    2.2520   -4.9890 hc        1 MOL      0.041443
    157 H75         6.8610    4.6470   -3.4610 hx        1 MOL      0.091286
    158 H76         5.5800    5.0910   -4.5460 hx        1 MOL      0.091286
    159 H77         7.9310    5.3880   -5.4010 hn        1 MOL      0.345633
    160 H78         8.1260    3.7800   -5.1330 hn        1 MOL      0.345633
    161 H79         7.1290    4.4470   -6.3990 hn        1 MOL      0.345633
    162 N14         4.9810    0.8250    0.0850 n         1 MOL      0.057341
    163 C49         4.2130    1.3380    1.1800 c3        1 MOL     -0.291727
    164 C50         4.7990    1.0920    2.6000 c         1 MOL      0.427929
    165 O22         4.7460    2.0040    3.4860 o         1 MOL     -0.557595
    166 C51         2.8340    0.6910    1.0110 c3        1 MOL      0.091301
    167 C52         2.0900    1.2290   -0.1910 c3        1 MOL     -0.245785
    168 C53         0.7410    0.5790   -0.4510 c         1 MOL      0.677079
    169 O23         0.6520   -0.6730   -0.6100 o         1 MOL     -0.681597
    170 O24        -0.2740    1.3190   -0.4090 o         1 MOL     -0.681597
    171 H80         4.5420    0.1410   -0.5210 hn        1 MOL      0.117692
    172 H81         4.1590    2.4180    1.0890 h1        1 MOL      0.123353
    173 H82         2.3310    0.9560    1.9360 hc        1 MOL      0.026072
    174 H83         2.9370   -0.3670    0.7790 hc        1 MOL      0.026072
    175 H84         2.7170    1.2300   -1.0830 hc        1 MOL      0.060288
    176 H85         1.9430    2.2970   -0.0300 hc        1 MOL      0.060288
    177 N15         5.5700   -0.0040    2.8810 n         1 MOL     -0.033887
    178 C54         6.4130   -0.0690    4.0760 c3        1 MOL     -0.345511
    179 H86         5.7860   -0.2350    4.9530 h1        1 MOL      0.126364
    180 H87         7.1220   -0.8910    3.9760 h1        1 MOL      0.126364
    181 H88         6.9560    0.8690    4.1900 h1        1 MOL      0.126364
    182 H89         5.5900   -0.7820    2.2460 hn        1 MOL      0.136459
    183 Ca1        -1.9980   -0.4500   -1.4170 Ca        1 MOL      1.669791
    184 O25        -0.5020    0.2960   -3.4640 oh        1 MOL     -0.827972
    185 H90        -0.1540   -0.1750   -4.2240 ho        1 MOL      0.390844
    186 H91        -0.8200    1.1250   -3.8160 ho        1 MOL      0.390844
    187 O26        -1.1610   -2.6160   -2.7560 oh        1 MOL     -0.827972
    188 H92        -0.7470   -2.5370   -3.6190 ho        1 MOL      0.390844
    189 H93        -1.3670   -3.5440   -2.6650 ho        1 MOL      0.390844
@<TRIPOS>BOND
     1    1    2 1   
     2    1    4 1   
     3    1    5 1   
     4    1    6 1   
     5    2    3 2   
     6    2    7 1   
     7    7    8 1   
     8    7   15 1   
     9    8    9 1   
    10    8   11 1   
    11    8   16 1   
    12    9   10 2   
    13    9   19 1   
    14   11   12 1   
    15   11   17 1   
    16   11   18 1   
    17   12   13 1   
    18   12   14 1   
    19   19   20 1   
    20   19   28 1   
    21   20   21 1   
    22   20   23 1   
    23   20   29 1   
    24   21   22 2   
    25   21   41 1   
    26   23   24 1   
    27   23   30 1   
    28   23   31 1   
    29   24   25 1   
    30   24   32 1   
    31   24   33 1   
    32   25   26 1   
    33   25   34 1   
    34   25   35 1   
    35   26   27 1   
    36   26   36 1   
    37   26   37 1   
    38   27   38 1   
    39   27   39 1   
    40   27   40 1   
    41   41   42 1   
    42   41   49 1   
    43   42   43 1   
    44   42   45 1   
    45   42   50 1   
    46   43   44 2   
    47   43   53 1   
    48   45   46 1   
    49   45   51 1   
    50   45   52 1   
    51   46   47 1   
    52   46   48 1   
    53   53   54 1   
    54   53   57 1   
    55   54   55 1   
    56   54   58 1   
    57   54   59 1   
    58   55   56 2   
    59   55   60 1   
    60   60   61 1   
    61   60   68 1   
    62   61   62 1   
    63   61   64 1   
    64   61   69 1   
    65   62   63 2   
    66   62   72 1   
    67   64   65 1   
    68   64   70 1   
    69   64   71 1   
    70   65   66 1   
    71   65   67 1   
    72   72   73 1   
    73   72   76 1   
    74   73   74 1   
    75   73   77 1   
    76   73   78 1   
    77   74   75 2   
    78   74   79 1   
    79   79   80 1   
    80   79   86 1   
    81   80   81 1   
    82   80   83 1   
    83   80   87 1   
    84   81   82 2   
    85   81   93 1   
    86   83   84 1   
    87   83   85 1   
    88   83   88 1   
    89   84   90 1   
    90   84   91 1   
    91   84   92 1   
    92   85   89 1   
    93   93   94 1   
    94   93  101 1   
    95   94   95 1   
    96   94   97 1   
    97   94  102 1   
    98   95   96 2   
    99   95  112 1   
   100   97   98 1   
   101   97   99 1   
   102   97  103 1   
   103   98  100 1   
   104   98  104 1   
   105   98  105 1   
   106   99  106 1   
   107   99  107 1   
   108   99  108 1   
   109  100  109 1   
   110  100  110 1   
   111  100  111 1   
   112  112  113 1   
   113  112  119 1   
   114  113  114 1   
   115  113  116 1   
   116  113  120 1   
   117  114  115 2   
   118  114  126 1   
   119  116  117 1   
   120  116  118 1   
   121  116  121 1   
   122  117  123 1   
   123  117  124 1   
   124  117  125 1   
   125  118  122 1   
   126  126  127 1   
   127  126  133 1   
   128  127  128 1   
   129  127  130 1   
   130  127  134 1   
   131  128  129 2   
   132  128  140 1   
   133  130  131 1   
   134  130  132 1   
   135  130  135 1   
   136  131  137 1   
   137  131  138 1   
   138  131  139 1   
   139  132  136 1   
   140  140  141 1   
   141  140  149 1   
   142  141  142 1   
   143  141  144 1   
   144  141  150 1   
   145  142  143 2   
   146  142  162 1   
   147  144  145 1   
   148  144  151 1   
   149  144  152 1   
   150  145  146 1   
   151  145  153 1   
   152  145  154 1   
   153  146  147 1   
   154  146  155 1   
   155  146  156 1   
   156  147  148 1   
   157  147  157 1   
   158  147  158 1   
   159  148  159 1   
   160  148  160 1   
   161  148  161 1   
   162  162  163 1   
   163  162  171 1   
   164  163  164 1   
   165  163  166 1   
   166  163  172 1   
   167  164  165 2   
   168  164  177 1   
   169  166  167 1   
   170  166  173 1   
   171  166  174 1   
   172  167  168 1   
   173  167  175 1   
   174  167  176 1   
   175  168  169 1   
   176  168  170 1   
   177  177  178 1   
   178  177  182 1   
   179  178  179 1   
   180  178  180 1   
   181  178  181 1   
   182  184  185 1   
   183  184  186 1   
   184  187  188 1   
   185  187  189 1   
@<TRIPOS>SUBSTRUCTURE
     1 MOL         1 TEMP              0 ****  ****    0 ROOT
