@<TRIPOS>MOLECULE
MOL
  175   173     1     0     0
SMALL
resp


@<TRIPOS>ATOM
      1 C1          0.6720    3.9820    5.3120 c3        1 MOL     -0.344131
      2 C2         -0.0810    4.1070    3.9660 c         1 MOL      0.750414
      3 O1          0.6180    4.3000    2.9720 o         1 MOL     -0.577879
      4 H1          1.6580    3.5510    5.1370 hc        1 MOL      0.079270
      5 H2          0.7820    4.9700    5.7600 hc        1 MOL      0.079270
      6 H3          0.1080    3.3380    5.9860 hc        1 MOL      0.079270
      7 N1         -1.3720    3.9890    3.8440 n         1 MOL     -0.667256
      8 C3         -2.1390    3.7270    2.6010 c3        1 MOL      0.280155
      9 C4         -2.3420    4.8600    1.5860 c         1 MOL      0.653040
     10 O2         -2.7200    5.9030    2.0170 o         1 MOL     -0.581895
     11 C5         -3.5540    3.1200    2.9110 c3        1 MOL     -0.384479
     12 C6         -4.1600    2.3050    1.8060 c         1 MOL      0.901152
     13 O3         -3.5970    2.2050    0.7360 o         1 MOL     -0.735892
     14 O4         -5.2280    1.7230    2.0590 o         1 MOL     -0.735892
     15 H4         -1.9220    3.6790    4.6290 hn        1 MOL      0.312018
     16 H5         -1.5530    2.9540    2.1020 h1        1 MOL      0.013437
     17 H6         -4.2380    3.9500    3.1110 hc        1 MOL      0.063559
     18 H7         -3.4540    2.4520    3.7600 hc        1 MOL      0.063559
     19 N2         -2.0040    4.6010    0.3040 n         1 MOL     -0.620682
     20 C7         -2.3210    5.4530   -0.8440 c3        1 MOL      0.413640
     21 C8         -3.3390    4.9800   -1.8860 c         1 MOL      0.533324
     22 O5         -3.3890    5.5950   -2.9440 o         1 MOL     -0.569816
     23 C9         -1.0330    6.2060   -1.3080 c3        1 MOL     -0.202761
     24 H8         -1.5630    3.7400    0.0330 hn        1 MOL      0.308152
     25 H9         -2.8220    6.3130   -0.3950 h1        1 MOL     -0.033665
     26 H10        -0.3970    6.3940   -0.4470 hc        1 MOL      0.039851
     27 H11        -0.4590    5.5160   -1.9240 hc        1 MOL      0.039851
     28 H12        -1.1920    7.1230   -1.8810 hc        1 MOL      0.039851
     29 N3         -4.1360    3.9420   -1.5600 n         1 MOL     -0.665902
     30 C10        -4.9930    3.3040   -2.6030 c3        1 MOL      0.274427
     31 C11        -6.1090    2.4490   -2.1180 c         1 MOL      0.319308
     32 O6         -6.9710    2.1210   -2.9090 o         1 MOL     -0.547187
     33 C12        -4.0860    2.4960   -3.5280 c3        1 MOL     -0.401359
     34 C13        -3.1660    1.5650   -2.7430 c         1 MOL      0.762728
     35 O7         -1.9830    1.4620   -3.0530 o         1 MOL     -0.677352
     36 O8         -3.6030    0.8310   -1.8300 o         1 MOL     -0.677352
     37 H13        -3.9550    3.4480   -0.6980 hn        1 MOL      0.321029
     38 H14        -5.4580    4.0640   -3.2340 h1        1 MOL      0.066389
     39 H15        -3.4360    3.2030   -4.0420 hc        1 MOL      0.097832
     40 H16        -4.6860    1.8980   -4.2240 hc        1 MOL      0.097832
     41 N4         -6.0640    2.0380   -0.8540 n         1 MOL     -0.105345
     42 C14        -7.2580    1.4010   -0.2640 c3        1 MOL     -0.270051
     43 C15        -7.3150   -0.1240   -0.6250 c         1 MOL      0.495730
     44 O9         -8.3340   -0.8070   -0.5690 o         1 MOL     -0.587741
     45 H17        -5.1980    2.2250   -0.3620 hn        1 MOL      0.119477
     46 H18        -8.1480    1.9790   -0.5280 h1        1 MOL      0.131159
     47 H19        -7.2150    1.4360    0.8310 h1        1 MOL      0.131159
     48 N5         -6.1750   -0.6490   -1.1850 n         1 MOL     -0.193237
     49 C16        -6.2100   -1.9180   -1.9230 c3        1 MOL     -0.026656
     50 C17        -6.2670   -3.1670   -0.9510 c         1 MOL      0.417798
     51 O10        -6.4210   -4.2910   -1.3970 o         1 MOL     -0.550871
     52 C18        -5.0520   -1.8120   -2.9600 c3        1 MOL     -0.115005
     53 C19        -3.6610   -1.9930   -2.4960 c         1 MOL      0.493589
     54 N6         -2.7050   -1.9610   -3.3380 n         1 MOL     -0.660220
     55 O11        -3.3880   -2.1220   -1.3040 o         1 MOL     -0.226674
     56 H20        -5.3690   -0.0410   -1.2350 hn        1 MOL      0.225972
     57 H21        -7.1140   -2.0420   -2.5070 h1        1 MOL      0.093989
     58 H22        -5.1470   -0.9120   -3.5670 hc        1 MOL      0.041209
     59 H23        -5.2550   -2.5990   -3.6910 hc        1 MOL      0.041209
     60 H24        -2.8580   -1.7230   -4.3070 hn        1 MOL      0.338734
     61 H25        -1.7740   -1.8260   -2.9630 hn        1 MOL      0.338734
     62 N7         -6.1130   -2.9320    0.3570 n         1 MOL     -0.096527
     63 C20        -6.2270   -3.9890    1.3780 c3        1 MOL     -0.340497
     64 C21        -4.9000   -4.6280    1.6540 c         1 MOL      0.598250
     65 O12        -4.8820   -5.4710    2.5750 o         1 MOL     -0.595831
     66 H26        -6.0320   -1.9490    0.5910 hn        1 MOL      0.141125
     67 H27        -6.9970   -4.6860    1.0440 h1        1 MOL      0.137447
     68 H28        -6.6030   -3.4460    2.2530 h1        1 MOL      0.137447
     69 N8         -3.8470   -4.2680    0.9510 n         1 MOL     -0.114153
     70 C22        -2.4710   -4.7100    1.1380 c3        1 MOL     -0.474626
     71 C23        -1.4490   -3.5680    1.4180 c         1 MOL      0.956285
     72 O13        -1.6420   -2.4760    1.0540 o         1 MOL     -0.760495
     73 C24        -1.9250   -5.4300   -0.0960 c3        1 MOL      0.653550
     74 C25        -2.5850   -6.8000   -0.2910 c3        1 MOL     -0.361255
     75 O14        -2.2010   -4.7610   -1.2540 oh        1 MOL     -0.556995
     76 H29        -3.9810   -3.4630    0.3670 hn        1 MOL      0.103024
     77 H30        -2.4050   -5.3790    1.9970 h1        1 MOL      0.116462
     78 H31        -0.8570   -5.5610    0.0290 h1        1 MOL     -0.068345
     79 H32        -2.4230   -3.8900   -0.9090 ho        1 MOL      0.166113
     80 H33        -1.9250   -7.6220   -0.0430 hc        1 MOL      0.074060
     81 H34        -3.4350   -6.9590    0.3730 hc        1 MOL      0.074060
     82 H35        -2.8810   -7.0180   -1.3170 hc        1 MOL      0.074060
     83 N9         -0.3210   -3.8780    2.0510 n         1 MOL     -0.708769
     84 C26         0.8240   -2.9540    1.9570 c3        1 MOL      0.056427
     85 C27         1.4760   -3.1920    0.6040 c         1 MOL      0.506989
     86 O15         1.7960   -4.3650    0.2060 o         1 MOL     -0.600778
     87 C28         1.7080   -3.1040    3.2350 c3        1 MOL      0.153231
     88 C29         1.0430   -2.3270    4.3470 c3        1 MOL      0.111776
     89 C30         3.1000   -2.5900    2.9210 c3        1 MOL     -0.355736
     90 C31         1.6920   -2.4340    5.8340 c3        1 MOL     -0.104788
     91 H36        -0.1280   -4.8470    2.2390 hn        1 MOL      0.311562
     92 H37         0.4060   -1.9510    2.0700 h1        1 MOL      0.109311
     93 H38         1.7820   -4.1290    3.6070 hc        1 MOL      0.000688
     94 H39        -0.0020   -2.6340    4.3960 hc        1 MOL     -0.036618
     95 H40         1.0480   -1.2840    4.0400 hc        1 MOL     -0.036618
     96 H41         3.6410   -3.1480    2.1520 hc        1 MOL      0.075818
     97 H42         2.9650   -1.5500    2.5930 hc        1 MOL      0.075818
     98 H43         3.7040   -2.4770    3.8190 hc        1 MOL      0.075818
     99 H44         2.7740   -2.3090    5.9040 hc        1 MOL      0.016156
    100 H45         1.1910   -1.6960    6.4590 hc        1 MOL      0.016156
    101 H46         1.4960   -3.4490    6.1840 hc        1 MOL      0.016156
    102 N10         1.7800   -2.1220   -0.0980 n         1 MOL     -0.065881
    103 C32         2.5720   -2.0950   -1.2970 c3        1 MOL      0.007163
    104 C33         3.9790   -1.7100   -0.9910 c         1 MOL      0.514012
    105 O16         4.1810   -1.1310    0.0680 o         1 MOL     -0.375440
    106 C34         1.9630   -1.0790   -2.2230 c3        1 MOL     -0.183386
    107 C35         0.4940   -1.1960   -2.5150 c         1 MOL      0.696022
    108 O17        -0.3400   -0.8170   -1.6840 o         1 MOL     -0.668458
    109 O18         0.1330   -1.6440   -3.6350 o         1 MOL     -0.668458
    110 H47         1.4630   -1.2490    0.2870 hn        1 MOL     -0.039042
    111 H48         2.5110   -3.0640   -1.7900 h1        1 MOL      0.077272
    112 H49         2.4320   -1.1660   -3.2090 hc        1 MOL      0.049043
    113 H50         2.1640   -0.0810   -1.8300 hc        1 MOL      0.049043
    114 N11         5.0100   -2.0260   -1.8150 n         1 MOL     -0.712213
    115 C36         6.3960   -1.6290   -1.4040 c3        1 MOL      0.393238
    116 C37         6.5320   -0.1330   -1.0530 c         1 MOL      0.330921
    117 O19         7.0110    0.0720   -0.0000 o         1 MOL     -0.451847
    118 C38         7.4770   -2.1190   -2.4300 c3        1 MOL     -0.209273
    119 C39         8.9140   -1.7780   -2.0800 ca        1 MOL      0.029233
    120 C40         9.5730   -2.4220   -1.0440 ca        1 MOL     -0.102351
    121 C41         9.4910   -0.6720   -2.7940 ca        1 MOL     -0.102351
    122 C42        10.8360   -1.9680   -0.6470 ca        1 MOL     -0.187338
    123 C43        10.7910   -0.2780   -2.4000 ca        1 MOL     -0.187338
    124 C44        11.4120   -0.8150   -1.2330 ca        1 MOL     -0.031242
    125 H51         4.7410   -2.3240   -2.7490 hn        1 MOL      0.348457
    126 H52         6.6500   -2.1480   -0.4840 h1        1 MOL      0.051415
    127 H53         7.3250   -1.7490   -3.4460 hc        1 MOL      0.065571
    128 H54         7.3450   -3.2050   -2.4570 hc        1 MOL      0.065571
    129 H55         9.0920   -3.2520   -0.5450 ha        1 MOL      0.116729
    130 H56         8.9430   -0.1180   -3.5400 ha        1 MOL      0.116729
    131 H57        11.3590   -2.4340    0.1700 ha        1 MOL      0.123915
    132 H58        11.1570    0.6270   -2.8690 ha        1 MOL      0.123915
    133 H59        12.3370   -0.4130   -0.8620 ha        1 MOL      0.091673
    134 N12         6.1690    0.9120   -1.8980 n         1 MOL     -0.075030
    135 C45         6.2840    2.3010   -1.4680 c3        1 MOL     -0.110865
    136 C46         5.4760    2.7750   -0.2080 c         1 MOL      0.445687
    137 O20         5.5800    3.8830    0.2920 o         1 MOL     -0.523017
    138 C47         5.9910    3.1270   -2.6930 c3        1 MOL     -0.062866
    139 C48         4.9180    2.3020   -3.4330 c3        1 MOL      0.027721
    140 C49         5.3820    0.8530   -3.1130 c3        1 MOL      0.002543
    141 H60         7.3430    2.4510   -1.2570 h1        1 MOL      0.072424
    142 H61         5.6670    4.1380   -2.4360 hc        1 MOL      0.037733
    143 H62         6.8880    3.1590   -3.3240 hc        1 MOL      0.037733
    144 H63         3.9490    2.5250   -2.9910 hc        1 MOL      0.022072
    145 H64         4.9570    2.4760   -4.5070 hc        1 MOL      0.022072
    146 H65         4.4390    0.3230   -3.0260 h1        1 MOL      0.004743
    147 H66         6.0460    0.4660   -3.8820 h1        1 MOL      0.004743
    148 N13         4.7070    1.8470    0.3040 n         1 MOL     -0.136369
    149 C50         4.1590    2.1130    1.6210 c3        1 MOL     -0.122824
    150 C51         4.9960    1.5050    2.7480 c         1 MOL      0.423078
    151 O21         5.0780    1.9940    3.8670 o         1 MOL     -0.559852
    152 C52         2.7240    1.4280    1.6320 c3        1 MOL      0.046376
    153 C53         1.7510    2.0040    0.5600 c3        1 MOL     -0.156054
    154 C54         0.3260    1.4200    0.6440 c         1 MOL      0.498442
    155 O22        -0.6390    2.0050    0.1170 o         1 MOL     -0.601222
    156 O23         0.3120    0.2710    1.1440 o         1 MOL     -0.601222
    157 H67         4.5630    0.9440   -0.1280 hn        1 MOL      0.187574
    158 H68         4.0170    3.1720    1.8430 h1        1 MOL      0.134365
    159 H69         2.2310    1.7360    2.5560 hc        1 MOL      0.028043
    160 H70         2.8600    0.3590    1.4950 hc        1 MOL      0.028043
    161 H71         2.1240    1.8250   -0.4480 hc        1 MOL      0.074997
    162 H72         1.7010    3.0890    0.6650 hc        1 MOL      0.074997
    163 N14         5.7650    0.4640    2.4770 n         1 MOL     -0.027820
    164 C55         6.6900   -0.1730    3.4430 c3        1 MOL     -0.187328
    165 H73         7.6620   -0.3190    2.9730 h1        1 MOL      0.077287
    166 H74         6.8020    0.4690    4.3160 h1        1 MOL      0.077287
    167 H75         6.2870   -1.1380    3.7500 h1        1 MOL      0.077287
    168 H76         5.8140    0.1380    1.5240 hn        1 MOL      0.022904
    169 Ca1        -2.0700   -0.0430   -0.0440 Ca        1 MOL      1.633772
    170 O24        -1.9250    0.0280    2.6730 oh        1 MOL     -0.727141
    171 H77        -2.0620    0.0290    3.6140 ho        1 MOL      0.361736
    172 H78        -0.9800    0.1980    2.5710 ho        1 MOL      0.361736
    173 O25        -4.3080   -0.6280    1.2400 oh        1 MOL     -0.727141
    174 H79        -4.6200    0.2680    1.4040 ho        1 MOL      0.361736
    175 H80        -4.4450   -1.0800    2.0700 ho        1 MOL      0.361736
@<TRIPOS>BOND
     1    1    2 1   
     2    1    4 1   
     3    1    5 1   
     4    1    6 1   
     5    2    3 2   
     6    2    7 1   
     7    7    8 1   
     8    7   15 1   
     9    8    9 1   
    10    8   11 1   
    11    8   16 1   
    12    9   10 2   
    13    9   19 1   
    14   11   12 1   
    15   11   17 1   
    16   11   18 1   
    17   12   13 1   
    18   12   14 1   
    19   19   20 1   
    20   19   24 1   
    21   20   21 1   
    22   20   23 1   
    23   20   25 1   
    24   21   22 2   
    25   21   29 1   
    26   23   26 1   
    27   23   27 1   
    28   23   28 1   
    29   29   30 1   
    30   29   37 1   
    31   30   31 1   
    32   30   33 1   
    33   30   38 1   
    34   31   32 2   
    35   31   41 1   
    36   33   34 1   
    37   33   39 1   
    38   33   40 1   
    39   34   35 1   
    40   34   36 1   
    41   41   42 1   
    42   41   45 1   
    43   42   43 1   
    44   42   46 1   
    45   42   47 1   
    46   43   44 2   
    47   43   48 1   
    48   48   49 1   
    49   48   56 1   
    50   49   50 1   
    51   49   52 1   
    52   49   57 1   
    53   50   51 2   
    54   50   62 1   
    55   52   53 1   
    56   52   58 1   
    57   52   59 1   
    58   53   54 1   
    59   53   55 2   
    60   54   60 1   
    61   54   61 1   
    62   62   63 1   
    63   62   66 1   
    64   63   64 1   
    65   63   67 1   
    66   63   68 1   
    67   64   65 2   
    68   64   69 1   
    69   69   70 1   
    70   69   76 1   
    71   70   71 1   
    72   70   73 1   
    73   70   77 1   
    74   71   72 2   
    75   71   83 1   
    76   73   74 1   
    77   73   75 1   
    78   73   78 1   
    79   74   80 1   
    80   74   81 1   
    81   74   82 1   
    82   75   79 1   
    83   83   84 1   
    84   83   91 1   
    85   84   85 1   
    86   84   87 1   
    87   84   92 1   
    88   85   86 2   
    89   85  102 1   
    90   87   88 1   
    91   87   89 1   
    92   87   93 1   
    93   88   90 1   
    94   88   94 1   
    95   88   95 1   
    96   89   96 1   
    97   89   97 1   
    98   89   98 1   
    99   90   99 1   
   100   90  100 1   
   101   90  101 1   
   102  102  103 1   
   103  102  110 1   
   104  103  104 1   
   105  103  106 1   
   106  103  111 1   
   107  104  105 2   
   108  104  114 1   
   109  106  107 1   
   110  106  112 1   
   111  106  113 1   
   112  107  108 1   
   113  107  109 1   
   114  114  115 1   
   115  114  125 1   
   116  115  116 1   
   117  115  118 1   
   118  115  126 1   
   119  116  117 2   
   120  116  134 1   
   121  118  119 1   
   122  118  127 1   
   123  118  128 1   
   124  119  120 ar  
   125  119  121 ar  
   126  120  122 ar  
   127  120  129 1   
   128  121  123 ar  
   129  121  130 1   
   130  122  124 ar  
   131  122  131 1   
   132  123  124 ar  
   133  123  132 1   
   134  124  133 1   
   135  134  135 1   
   136  134  140 1   
   137  135  136 1   
   138  135  138 1   
   139  135  141 1   
   140  136  137 2   
   141  136  148 1   
   142  138  139 1   
   143  138  142 1   
   144  138  143 1   
   145  139  140 1   
   146  139  144 1   
   147  139  145 1   
   148  140  146 1   
   149  140  147 1   
   150  148  149 1   
   151  148  157 1   
   152  149  150 1   
   153  149  152 1   
   154  149  158 1   
   155  150  151 2   
   156  150  163 1   
   157  152  153 1   
   158  152  159 1   
   159  152  160 1   
   160  153  154 1   
   161  153  161 1   
   162  153  162 1   
   163  154  155 1   
   164  154  156 1   
   165  163  164 1   
   166  163  168 1   
   167  164  165 1   
   168  164  166 1   
   169  164  167 1   
   170  170  171 1   
   171  170  172 1   
   172  173  174 1   
   173  173  175 1   
@<TRIPOS>SUBSTRUCTURE
     1 MOL         1 TEMP              0 ****  ****    0 ROOT
