@<TRIPOS>MOLECULE
MOL
  179   176     1     0     0
SMALL
resp


@<TRIPOS>ATOM
      1 C1          0.8590    4.4920    4.7960 c3        1 MOL     -0.311383
      2 C2          0.4640    3.6610    3.5590 c         1 MOL      0.698925
      3 O1          1.2030    3.5260    2.6740 o         1 MOL     -0.576733
      4 H1          0.6280    5.5430    4.6150 hc        1 MOL      0.072445
      5 H2          0.3000    4.1420    5.6640 hc        1 MOL      0.072445
      6 H3          1.9270    4.3830    4.9820 hc        1 MOL      0.072445
      7 N1         -0.8330    3.2640    3.4480 n         1 MOL     -0.690427
      8 C3         -1.4750    2.7500    2.2160 c3        1 MOL      0.176709
      9 C4         -2.2310    3.9370    1.5110 c         1 MOL      0.575094
     10 O2         -3.4190    4.0680    1.5110 o         1 MOL     -0.465838
     11 C5         -2.3430    1.5650    2.4910 c3        1 MOL     -0.145620
     12 C6         -3.1500    1.0850    1.2910 c         1 MOL      0.633209
     13 O3         -2.6740    1.2660    0.1800 o         1 MOL     -0.624111
     14 O4         -4.2360    0.5450    1.5670 o         1 MOL     -0.624111
     15 H4         -1.4090    3.6480    4.1940 hn        1 MOL      0.333670
     16 H5         -0.6550    2.4910    1.5460 h1        1 MOL      0.066783
     17 H6         -2.9960    1.9250    3.2860 hc        1 MOL      0.031406
     18 H7         -1.7750    0.6760    2.7520 hc        1 MOL      0.031406
     19 N2         -1.3970    4.7340    0.8220 n         1 MOL     -0.551059
     20 C7         -1.8690    6.0090    0.1720 c3        1 MOL      0.018210
     21 C8         -2.9420    5.8590   -0.8920 c         1 MOL      0.498276
     22 O5         -3.7780    6.7710   -1.0290 o         1 MOL     -0.547123
     23 C9         -0.6950    6.7020   -0.4390 c3        1 MOL     -0.461649
     24 C10         0.2510    7.1260    0.7320 c3        1 MOL      0.369889
     25 C11         1.2130    8.2620    0.3720 c3        1 MOL     -0.278673
     26 C12         2.2400    8.3900    1.4830 c3        1 MOL     -0.008669
     27 N3          1.7090    9.1610    2.6620 n4        1 MOL     -0.450533
     28 H8         -0.4030    4.6330    0.9280 hn        1 MOL      0.338131
     29 H9         -2.3510    6.6660    0.8930 h1        1 MOL      0.072337
     30 H10        -1.0520    7.6310   -0.8760 hc        1 MOL      0.150792
     31 H11        -0.2840    6.0300   -1.2020 hc        1 MOL      0.150792
     32 H12         0.8140    6.2260    0.9750 hc        1 MOL     -0.042992
     33 H13        -0.2360    7.3500    1.6860 hc        1 MOL     -0.042992
     34 H14         0.6180    9.1480    0.1950 hc        1 MOL      0.109973
     35 H15         1.7540    7.9330   -0.5260 hc        1 MOL      0.109973
     36 H16         3.1790    8.8160    1.1110 hx        1 MOL      0.135276
     37 H17         2.4440    7.3670    1.8020 hx        1 MOL      0.135276
     38 H18         2.4080    9.2580    3.3930 hn        1 MOL      0.348140
     39 H19         1.4010   10.1010    2.4420 hn        1 MOL      0.348140
     40 H20         0.8620    8.7590    3.0330 hn        1 MOL      0.348140
     41 N4         -2.8860    4.7650   -1.6820 n         1 MOL     -0.316053
     42 C13        -3.8580    4.5060   -2.7760 c3        1 MOL     -0.006455
     43 C14        -5.1200    3.8460   -2.2100 c         1 MOL      0.437364
     44 O6         -6.1690    3.9890   -2.7080 o         1 MOL     -0.516427
     45 C15        -3.3340    3.5210   -3.8330 c3        1 MOL     -0.175286
     46 C16        -2.6970    2.2820   -3.2530 c         1 MOL      0.764031
     47 O7         -3.3080    1.1590   -3.2000 o         1 MOL     -0.772136
     48 O8         -1.5980    2.3460   -2.6580 o         1 MOL     -0.772136
     49 H21        -2.0800    4.1710   -1.6030 hn        1 MOL      0.294436
     50 H22        -4.0990    5.4730   -3.2170 h1        1 MOL      0.090796
     51 H23        -2.5190    3.9940   -4.3890 hc        1 MOL      0.049511
     52 H24        -4.0920    3.4460   -4.6120 hc        1 MOL      0.049511
     53 N5         -4.8450    3.0920   -1.1470 n         1 MOL      0.261452
     54 C17        -5.9500    2.7360   -0.2810 c3        1 MOL     -0.130785
     55 C18        -6.5680    1.4020   -0.7630 c         1 MOL      0.464447
     56 O9         -7.6810    1.4270   -1.3550 o         1 MOL     -0.546344
     57 H25        -3.8930    2.9780   -0.8230 hn        1 MOL     -0.191968
     58 H26        -6.5450    3.6330   -0.1980 h1        1 MOL      0.068731
     59 H27        -5.5940    2.5840    0.7380 h1        1 MOL      0.068731
     60 N6         -5.8350    0.2790   -0.7170 n         1 MOL     -0.201897
     61 C19        -6.2500   -1.0370   -1.0590 c3        1 MOL      0.096450
     62 C20        -6.2530   -2.1780    0.0170 c         1 MOL      0.257812
     63 O10        -6.7220   -3.3060   -0.3060 o         1 MOL     -0.474868
     64 C21        -5.6730   -1.4690   -2.3650 c3        1 MOL     -0.179391
     65 C22        -4.3950   -2.1840   -2.3490 c         1 MOL      0.535559
     66 N7         -4.3990   -3.3940   -2.8710 n         1 MOL     -0.655220
     67 O11        -3.3460   -1.6730   -1.9320 o         1 MOL     -0.553926
     68 H28        -4.8910    0.4020   -0.3650 hn        1 MOL      0.026179
     69 H29        -7.3270   -1.0230   -1.2190 h1        1 MOL      0.082131
     70 H30        -5.6670   -0.6050   -3.0310 hc        1 MOL      0.080392
     71 H31        -6.3380   -2.1860   -2.8290 hc        1 MOL      0.080392
     72 H32        -5.2440   -3.7100   -3.3450 hn        1 MOL      0.347536
     73 H33        -3.5200   -3.8720   -3.0310 hn        1 MOL      0.347536
     74 N8         -5.7020   -1.9000    1.1590 n         1 MOL     -0.079736
     75 C23        -5.5550   -2.6990    2.3910 c3        1 MOL     -0.297660
     76 C24        -4.1780   -3.2870    2.6570 c         1 MOL      0.663028
     77 O12        -4.0660   -4.1180    3.5420 o         1 MOL     -0.569612
     78 H34        -5.3360   -0.9640    1.2890 hn        1 MOL      0.186960
     79 H35        -6.3290   -3.4610    2.4050 h1        1 MOL      0.140490
     80 H36        -5.7500   -2.0210    3.2240 h1        1 MOL      0.140490
     81 N9         -3.1820   -2.8880    1.8690 n         1 MOL     -0.579178
     82 C25        -1.9070   -3.5800    1.7210 c3        1 MOL      0.107709
     83 C26        -0.7590   -2.6580    1.3640 c         1 MOL      0.642502
     84 O13        -0.9350   -1.6980    0.5140 o         1 MOL     -0.702184
     85 C27        -2.0720   -4.7670    0.7290 c3        1 MOL     -0.029573
     86 C28        -3.2480   -5.7180    0.9500 ca        1 MOL     -0.036592
     87 C29        -4.3920   -5.5180    0.1630 ca        1 MOL     -0.008733
     88 C30        -3.1890   -6.8770    1.7700 ca        1 MOL     -0.008733
     89 C31        -5.3420   -6.5340   -0.0140 ca        1 MOL     -0.422923
     90 C32        -4.1300   -7.9030    1.6230 ca        1 MOL     -0.422923
     91 C33        -5.2330   -7.7180    0.7330 ca        1 MOL      0.484967
     92 O14        -6.0900   -8.7210    0.4650 oh        1 MOL     -0.497571
     93 H37        -3.4340   -2.1780    1.1910 hn        1 MOL      0.390689
     94 H38        -1.7080   -4.0830    2.6580 h1        1 MOL      0.063438
     95 H39        -1.2100   -5.4390    0.7500 hc        1 MOL      0.008094
     96 H40        -2.0660   -4.4000   -0.2950 hc        1 MOL      0.008094
     97 H41        -4.4500   -4.6890   -0.5140 ha        1 MOL      0.098990
     98 H42        -2.3650   -7.0030    2.4500 ha        1 MOL      0.098990
     99 H43        -6.2020   -6.2710   -0.6120 ha        1 MOL      0.174604
    100 H44        -4.0350   -8.7970    2.2130 ha        1 MOL      0.174604
    101 H45        -5.9000   -9.5020    1.0040 ho        1 MOL      0.354094
    102 N10         0.4660   -2.8880    1.9340 n         1 MOL     -0.517337
    103 C34         1.7240   -2.2390    1.5210 c3        1 MOL     -0.108220
    104 C35         2.9020   -3.2120    1.0760 c         1 MOL      0.629297
    105 O15         3.2750   -4.1710    1.7360 o         1 MOL     -0.554769
    106 C36         2.3240   -1.1720    2.5240 c3        1 MOL      0.173841
    107 C37         2.6080   -1.6410    3.9530 c3        1 MOL     -0.276677
    108 C38         1.2060   -0.1360    2.6140 c3        1 MOL     -0.630946
    109 C39         3.0770   -0.5820    4.9090 c3        1 MOL     -0.046447
    110 H46         0.4590   -3.6820    2.5640 hn        1 MOL      0.308323
    111 H47         1.5160   -1.7660    0.5680 h1        1 MOL      0.073531
    112 H48         3.1740   -0.6520    2.1010 hc        1 MOL     -0.034792
    113 H49         3.4300   -2.3340    3.7880 hc        1 MOL      0.096129
    114 H50         1.6740   -2.1070    4.2680 hc        1 MOL      0.096129
    115 H51         1.4350    0.7780    3.1620 hc        1 MOL      0.215701
    116 H52         0.9760    0.2120    1.6150 hc        1 MOL      0.215701
    117 H53         0.3390   -0.5910    3.0930 hc        1 MOL      0.215701
    118 H54         2.3910    0.2400    5.0990 hc        1 MOL      0.028044
    119 H55         3.3420   -1.0740    5.8480 hc        1 MOL      0.028044
    120 H56         4.0730   -0.2520    4.5910 hc        1 MOL      0.028044
    121 N11         3.5030   -2.8630   -0.0730 n         1 MOL     -0.457280
    122 C40         4.5970   -3.5590   -0.7080 c3        1 MOL      0.020585
    123 C41         5.9750   -3.0600   -0.3320 c         1 MOL      0.443590
    124 O16         6.0070   -1.9830    0.2810 o         1 MOL     -0.307880
    125 C42         4.4110   -3.5950   -2.2300 c3        1 MOL     -0.276334
    126 O17         4.8390   -2.3310   -2.8740 oh        1 MOL     -0.462229
    127 H57         3.0990   -2.0460   -0.5150 hn        1 MOL      0.340344
    128 H58         4.6180   -4.5800   -0.3110 h1        1 MOL      0.077306
    129 H59         3.3600   -3.6830   -2.4750 h1        1 MOL      0.164057
    130 H60         4.9170   -4.4290   -2.7050 h1        1 MOL      0.164057
    131 H61         5.5810   -2.5940   -3.4250 ho        1 MOL      0.338797
    132 N12         7.0980   -3.6830   -0.7230 n         1 MOL     -0.456678
    133 C43         8.4380   -3.2300   -0.3900 c3        1 MOL      0.227308
    134 C44         8.6260   -1.7830   -0.9170 c         1 MOL      0.376350
    135 O18         9.2790   -0.9830   -0.2370 o         1 MOL     -0.529637
    136 C45         9.4580   -4.1720   -0.9840 c3        1 MOL     -0.230065
    137 H62         6.9500   -4.5580   -1.1920 hn        1 MOL      0.274464
    138 H63         8.4910   -3.1230    0.6950 h1        1 MOL      0.049161
    139 H64        10.4380   -3.7850   -0.7100 hc        1 MOL      0.073346
    140 H65         9.3850   -5.1880   -0.6090 hc        1 MOL      0.073346
    141 H66         9.3170   -4.0940   -2.0670 hc        1 MOL      0.073346
    142 N13         8.0650   -1.3990   -2.0090 n         1 MOL     -0.185474
    143 C46         8.1690   -0.1040   -2.6050 c3        1 MOL     -0.002113
    144 C47         7.2400    0.9260   -1.8460 c         1 MOL      0.345008
    145 O19         7.5840    2.1050   -1.7670 o         1 MOL     -0.481362
    146 C48         7.5850   -0.3310   -4.0210 c3        1 MOL     -0.286200
    147 H67         7.5790   -2.0980   -2.5630 hn        1 MOL      0.162678
    148 H68         9.1530    0.2780   -2.8760 h1        1 MOL      0.116439
    149 H69         8.2570   -0.9380   -4.6330 hc        1 MOL      0.084174
    150 H70         6.5400   -0.5820   -3.8570 hc        1 MOL      0.084174
    151 H71         7.6420    0.6310   -4.5300 hc        1 MOL      0.084174
    152 N14         6.0800    0.4620   -1.3080 n         1 MOL     -0.074001
    153 C49         5.3830    1.3070   -0.4530 c3        1 MOL     -0.012694
    154 C50         5.9740    1.4950    0.9160 c         1 MOL      0.401774
    155 O20         6.1220    2.6170    1.3310 o         1 MOL     -0.545436
    156 C51         3.9770    0.7040   -0.2820 c3        1 MOL     -0.081627
    157 C52         3.1300    0.7520   -1.5680 c3        1 MOL      0.025520
    158 C53         1.7150    0.1920   -1.2490 c         1 MOL      0.623472
    159 O21         0.8640    0.9550   -0.7550 o         1 MOL     -0.694650
    160 O22         1.3550   -0.9840   -1.5980 o         1 MOL     -0.694650
    161 H72         5.8520   -0.5260   -1.3450 hn        1 MOL      0.186357
    162 H73         5.2420    2.2930   -0.9150 h1        1 MOL      0.075638
    163 H74         3.3860    1.3250    0.3820 hc        1 MOL      0.063962
    164 H75         4.1390   -0.3240    0.0610 hc        1 MOL      0.063962
    165 H76         3.6120    0.1800   -2.3670 hc        1 MOL     -0.033860
    166 H77         3.1120    1.7570   -2.0030 hc        1 MOL     -0.033860
    167 N15         6.5580    0.4270    1.4750 n         1 MOL      0.045570
    168 C54         7.3450    0.4970    2.7150 c3        1 MOL     -0.531909
    169 H78         7.1500    1.4460    3.2140 h1        1 MOL      0.166922
    170 H79         7.0610   -0.3240    3.3730 h1        1 MOL      0.166922
    171 H80         8.4060    0.4240    2.4770 h1        1 MOL      0.166922
    172 H81         6.5840   -0.4600    1.0010 hn        1 MOL      0.053721
    173 Ca1        -1.3880   -0.0710   -1.6740 Ca        1 MOL      1.799597
    174 O23        -0.5310   -0.5200   -4.0550 oh        1 MOL     -0.852839
    175 H82        -0.9360   -0.2010   -4.8630 ho        1 MOL      0.415721
    176 H83         0.2640   -0.9680   -4.3510 ho        1 MOL      0.415721
    177 O24        -0.4930   -2.8650   -2.0520 oh        1 MOL     -0.852839
    178 H84         0.3260   -2.5030   -1.7000 ho        1 MOL      0.415721
    179 H85        -0.3210   -3.8090   -2.1110 ho        1 MOL      0.415721
@<TRIPOS>BOND
     1    1    2 1   
     2    1    4 1   
     3    1    5 1   
     4    1    6 1   
     5    2    3 2   
     6    2    7 1   
     7    7    8 1   
     8    7   15 1   
     9    8    9 1   
    10    8   11 1   
    11    8   16 1   
    12    9   10 2   
    13    9   19 1   
    14   11   12 1   
    15   11   17 1   
    16   11   18 1   
    17   12   13 1   
    18   12   14 1   
    19   19   20 1   
    20   19   28 1   
    21   20   21 1   
    22   20   23 1   
    23   20   29 1   
    24   21   22 2   
    25   21   41 1   
    26   23   24 1   
    27   23   30 1   
    28   23   31 1   
    29   24   25 1   
    30   24   32 1   
    31   24   33 1   
    32   25   26 1   
    33   25   34 1   
    34   25   35 1   
    35   26   27 1   
    36   26   36 1   
    37   26   37 1   
    38   27   38 1   
    39   27   39 1   
    40   27   40 1   
    41   41   42 1   
    42   41   49 1   
    43   42   43 1   
    44   42   45 1   
    45   42   50 1   
    46   43   44 2   
    47   43   53 1   
    48   45   46 1   
    49   45   51 1   
    50   45   52 1   
    51   46   47 1   
    52   46   48 1   
    53   53   54 1   
    54   53   57 1   
    55   54   55 1   
    56   54   58 1   
    57   54   59 1   
    58   55   56 2   
    59   55   60 1   
    60   60   61 1   
    61   60   68 1   
    62   61   62 1   
    63   61   64 1   
    64   61   69 1   
    65   62   63 2   
    66   62   74 1   
    67   64   65 1   
    68   64   70 1   
    69   64   71 1   
    70   65   66 1   
    71   65   67 2   
    72   66   72 1   
    73   66   73 1   
    74   74   75 1   
    75   74   78 1   
    76   75   76 1   
    77   75   79 1   
    78   75   80 1   
    79   76   77 2   
    80   76   81 1   
    81   81   82 1   
    82   81   93 1   
    83   82   83 1   
    84   82   85 1   
    85   82   94 1   
    86   83   84 2   
    87   83  102 1   
    88   85   86 1   
    89   85   95 1   
    90   85   96 1   
    91   86   87 ar  
    92   86   88 ar  
    93   87   89 ar  
    94   87   97 1   
    95   88   90 ar  
    96   88   98 1   
    97   89   91 ar  
    98   89   99 1   
    99   90   91 ar  
   100   90  100 1   
   101   91   92 1   
   102   92  101 1   
   103  102  103 1   
   104  102  110 1   
   105  103  104 1   
   106  103  106 1   
   107  103  111 1   
   108  104  105 2   
   109  104  121 1   
   110  106  107 1   
   111  106  108 1   
   112  106  112 1   
   113  107  109 1   
   114  107  113 1   
   115  107  114 1   
   116  108  115 1   
   117  108  116 1   
   118  108  117 1   
   119  109  118 1   
   120  109  119 1   
   121  109  120 1   
   122  121  122 1   
   123  121  127 1   
   124  122  123 1   
   125  122  125 1   
   126  122  128 1   
   127  123  124 2   
   128  123  132 1   
   129  125  126 1   
   130  125  129 1   
   131  125  130 1   
   132  126  131 1   
   133  132  133 1   
   134  132  137 1   
   135  133  134 1   
   136  133  136 1   
   137  133  138 1   
   138  134  135 2   
   139  134  142 1   
   140  136  139 1   
   141  136  140 1   
   142  136  141 1   
   143  142  143 1   
   144  142  147 1   
   145  143  144 1   
   146  143  146 1   
   147  143  148 1   
   148  144  145 2   
   149  144  152 1   
   150  146  149 1   
   151  146  150 1   
   152  146  151 1   
   153  152  153 1   
   154  152  161 1   
   155  153  154 1   
   156  153  156 1   
   157  153  162 1   
   158  154  155 2   
   159  154  167 1   
   160  156  157 1   
   161  156  163 1   
   162  156  164 1   
   163  157  158 1   
   164  157  165 1   
   165  157  166 1   
   166  158  159 1   
   167  158  160 1   
   168  167  168 1   
   169  167  172 1   
   170  168  169 1   
   171  168  170 1   
   172  168  171 1   
   173  174  175 1   
   174  174  176 1   
   175  177  178 1   
   176  177  179 1   
@<TRIPOS>SUBSTRUCTURE
     1 MOL         1 TEMP              0 ****  ****    0 ROOT
