@<TRIPOS>MOLECULE
MOL
  179   176     1     0     0
SMALL
resp


@<TRIPOS>ATOM
      1 C1          2.4670    2.6600    4.7150 c3        1 MOL     -0.367077
      2 C2          1.7970    2.5440    3.3090 c         1 MOL      0.644051
      3 O1          2.4880    2.5160    2.2930 o         1 MOL     -0.596588
      4 H1          1.8710    3.3170    5.3480 hc        1 MOL      0.100164
      5 H2          2.5270    1.6720    5.1730 hc        1 MOL      0.100164
      6 H3          3.4700    3.0720    4.6080 hc        1 MOL      0.100164
      7 N1          0.4170    2.4710    3.3420 n         1 MOL     -0.579293
      8 C3         -0.4440    2.4870    2.1760 c3        1 MOL      0.283372
      9 C4         -0.6130    3.8820    1.5750 c         1 MOL      0.272620
     10 O2         -1.5960    4.6120    1.8420 o         1 MOL     -0.491435
     11 C5         -1.7940    1.8170    2.5420 c3        1 MOL     -0.247260
     12 C6         -2.6030    1.4670    1.2790 c         1 MOL      0.688782
     13 O3         -2.1880    1.6900    0.1110 o         1 MOL     -0.694911
     14 O4         -3.7160    0.9570    1.4370 o         1 MOL     -0.694911
     15 H4         -0.0640    2.5310    4.2360 hn        1 MOL      0.309541
     16 H5         -0.0110    1.8730    1.3820 h1        1 MOL      0.024839
     17 H6         -2.4050    2.5060    3.1380 hc        1 MOL      0.088086
     18 H7         -1.4840    0.9560    3.1390 hc        1 MOL      0.088086
     19 N2          0.2430    4.2400    0.6620 n         1 MOL     -0.224672
     20 C7          0.3840    5.5270   -0.0850 c3        1 MOL     -0.071365
     21 C8         -0.6240    5.8390   -1.1580 c         1 MOL      0.524598
     22 O5         -0.6560    6.9500   -1.7080 o         1 MOL     -0.600774
     23 C9          1.7820    5.6260   -0.6680 c3        1 MOL     -0.165036
     24 C10         2.6200    6.1270    0.4880 c3        1 MOL      0.283482
     25 C11         4.0990    6.4530    0.0770 c3        1 MOL     -0.082727
     26 C12         4.8280    7.1990    1.2360 c3        1 MOL     -0.122909
     27 N3          4.7680    6.2900    2.3870 n4        1 MOL     -0.292130
     28 H8          0.9110    3.4980    0.4620 hn        1 MOL      0.353787
     29 H9          0.2500    6.3480    0.6150 h1        1 MOL      0.087627
     30 H10         1.7840    6.3740   -1.4620 hc        1 MOL      0.074529
     31 H11         2.2050    4.6570   -0.9350 hc        1 MOL      0.074529
     32 H12         2.6110    5.3170    1.2150 hc        1 MOL     -0.065282
     33 H13         2.2630    7.0580    0.9240 hc        1 MOL     -0.065282
     34 H14         4.0290    6.9920   -0.8650 hc        1 MOL      0.053864
     35 H15         4.7350    5.5700   -0.0390 hc        1 MOL      0.053864
     36 H16         4.3970    8.1630    1.5230 hx        1 MOL      0.128233
     37 H17         5.8590    7.3930    0.9370 hx        1 MOL      0.128233
     38 H18         4.8720    5.3860    1.9540 hn        1 MOL      0.315579
     39 H19         5.6360    6.3000    2.9030 hn        1 MOL      0.315579
     40 H20         3.9490    6.2590    2.9740 hn        1 MOL      0.315579
     41 N4         -1.4820    4.9310   -1.3520 n         1 MOL     -0.240675
     42 C13        -2.7630    4.9650   -2.2020 c3        1 MOL      0.065495
     43 C14        -3.9910    4.7080   -1.4660 c         1 MOL      0.356127
     44 O6         -5.0790    4.9880   -1.9990 o         1 MOL     -0.505265
     45 C15        -2.6200    4.0940   -3.4900 c3        1 MOL     -0.179781
     46 C16        -2.1230    2.6880   -3.3570 c         1 MOL      0.774527
     47 O7         -2.8350    1.7160   -3.7630 o         1 MOL     -0.746515
     48 O8         -1.0750    2.4950   -2.7280 o         1 MOL     -0.746515
     49 H21        -1.2440    4.1110   -0.8000 hn        1 MOL      0.217404
     50 H22        -2.9520    5.9890   -2.5310 h1        1 MOL      0.106373
     51 H23        -2.0050    4.6140   -4.2220 hc        1 MOL      0.048614
     52 H24        -3.6170    4.1070   -3.9500 hc        1 MOL      0.048614
     53 N5         -3.9750    4.2360   -0.2240 n         1 MOL     -0.000214
     54 C17        -5.0780    3.9990    0.6820 c3        1 MOL     -0.027929
     55 C18        -6.1500    3.0810    0.0910 c         1 MOL      0.300744
     56 O9         -7.2810    3.5060   -0.0100 o         1 MOL     -0.514056
     57 H25        -3.0870    3.9190    0.1240 hn        1 MOL     -0.089528
     58 H26        -5.4790    4.9770    0.9560 h1        1 MOL      0.075803
     59 H27        -4.7750    3.5980    1.6540 h1        1 MOL      0.075803
     60 N6         -5.7120    1.8920   -0.2680 n         1 MOL      0.011554
     61 C19        -6.4540    0.8400   -1.0210 c3        1 MOL     -0.141838
     62 C20        -6.7270   -0.3950   -0.0490 c         1 MOL      0.321787
     63 O10        -7.3620   -1.3850   -0.4760 o         1 MOL     -0.414378
     64 C21        -5.7950    0.4610   -2.3380 c3        1 MOL      0.020401
     65 C22        -4.7980   -0.6450   -2.2410 c         1 MOL      0.425436
     66 N7         -5.1890   -1.8650   -2.8070 n         1 MOL     -0.557908
     67 O11        -3.7800   -0.5690   -1.6000 o         1 MOL     -0.607549
     68 H28        -4.7410    1.6570   -0.0820 hn        1 MOL      0.161082
     69 H29        -7.4500    1.1940   -1.2700 h1        1 MOL      0.134909
     70 H30        -5.2280    1.3270   -2.6970 hc        1 MOL      0.051479
     71 H31        -6.5080    0.2130   -3.1320 hc        1 MOL      0.051479
     72 H32        -5.9810   -1.9620   -3.4300 hn        1 MOL      0.299814
     73 H33        -4.4390   -2.5300   -2.8960 hn        1 MOL      0.299814
     74 N8         -6.3560   -0.2280    1.2490 n         1 MOL     -0.314843
     75 C23        -6.3820   -1.2220    2.2880 c3        1 MOL     -0.142426
     76 C24        -5.2090   -2.2120    2.4060 c         1 MOL      0.412663
     77 O12        -5.2840   -3.2350    3.0610 o         1 MOL     -0.541327
     78 H34        -5.7670    0.5710    1.4530 hn        1 MOL      0.269525
     79 H35        -7.3070   -1.8050    2.2330 h1        1 MOL      0.116390
     80 H36        -6.3870   -0.5940    3.1750 h1        1 MOL      0.116390
     81 N9         -4.2270   -2.0190    1.5370 n         1 MOL     -0.106248
     82 C25        -3.0890   -2.9480    1.2650 c3        1 MOL      0.249399
     83 C26        -1.6980   -2.2990    1.1640 c         1 MOL      0.207442
     84 O13        -1.4810   -1.1640    0.6300 o         1 MOL     -0.576386
     85 C27        -3.4130   -3.7930    0.0410 c3        1 MOL      0.469334
     86 C28        -4.5200   -4.7790    0.0550 ca        1 MOL     -0.177818
     87 C29        -5.8620   -4.5730   -0.1770 ca        1 MOL     -0.127229
     88 C30        -4.1660   -6.0890    0.4810 ca        1 MOL     -0.127229
     89 C31        -6.8680   -5.5340   -0.1550 ca        1 MOL     -0.190635
     90 C32        -5.0940   -7.1000    0.5280 ca        1 MOL     -0.190635
     91 C33        -6.4800   -6.8490    0.1930 ca        1 MOL      0.301492
     92 O14        -7.3470   -7.8900    0.0890 oh        1 MOL     -0.491344
     93 H37        -4.2090   -1.0940    1.1200 hn        1 MOL      0.190547
     94 H38        -3.0150   -3.6230    2.1170 h1        1 MOL     -0.043088
     95 H39        -2.5200   -4.3860   -0.1700 hc        1 MOL     -0.127182
     96 H40        -3.4190   -3.1420   -0.8410 hc        1 MOL     -0.127182
     97 H41        -6.2050   -3.6050   -0.5140 ha        1 MOL      0.092137
     98 H42        -3.1180   -6.2640    0.6800 ha        1 MOL      0.092137
     99 H43        -7.8820   -5.3700   -0.4700 ha        1 MOL      0.122017
    100 H44        -4.7790   -8.1060    0.7460 ha        1 MOL      0.122017
    101 H45        -7.1160   -8.7760    0.3670 ho        1 MOL      0.366515
    102 N10        -0.6840   -2.9810    1.6300 n         1 MOL     -0.321442
    103 C34         0.7340   -2.4400    1.6960 c3        1 MOL      0.005135
    104 C35         1.6700   -3.3920    0.9120 c         1 MOL      0.432484
    105 O15         1.9130   -4.5360    1.3500 o         1 MOL     -0.500715
    106 C36         1.1380   -2.2890    3.1530 c3        1 MOL      0.128323
    107 C37         0.2590   -1.3030    3.9910 c3        1 MOL      0.043560
    108 C38         2.6210   -1.7730    3.2330 c3        1 MOL     -0.349283
    109 C39         0.4440   -1.6540    5.5160 c3        1 MOL     -0.252560
    110 H46        -0.8290   -3.8550    2.1180 hn        1 MOL      0.277348
    111 H47         0.7680   -1.4450    1.2520 h1        1 MOL      0.155703
    112 H48         1.1900   -3.2910    3.5950 hc        1 MOL      0.021841
    113 H49        -0.7890   -1.3350    3.6870 hc        1 MOL      0.008225
    114 H50         0.4120   -0.2520    3.7650 hc        1 MOL      0.008225
    115 H51         3.0400   -1.6500    4.2370 hc        1 MOL      0.082719
    116 H52         3.2980   -2.4680    2.7310 hc        1 MOL      0.082719
    117 H53         2.7640   -0.8040    2.7630 hc        1 MOL      0.082719
    118 H54         1.5020   -1.5870    5.7850 hc        1 MOL      0.063954
    119 H55        -0.0310   -1.0800    6.3060 hc        1 MOL      0.063954
    120 H56         0.1120   -2.6850    5.6420 hc        1 MOL      0.063954
    121 N11         2.0700   -2.9500   -0.3350 n         1 MOL     -0.373704
    122 C40         3.1200   -3.6530   -1.1370 c3        1 MOL      0.022380
    123 C41         4.5480   -3.8230   -0.5260 c         1 MOL      0.396239
    124 O16         4.8320   -3.2830    0.5340 o         1 MOL     -0.369307
    125 C42         3.0850   -3.2600   -2.6250 c3        1 MOL     -0.217041
    126 O17         3.7770   -2.0310   -2.6630 oh        1 MOL     -0.375660
    127 H57         1.7730   -2.0650   -0.7140 hn        1 MOL      0.427991
    128 H58         2.7640   -4.6770   -1.2040 h1        1 MOL      0.051285
    129 H59         2.0410   -3.1610   -2.9320 h1        1 MOL      0.103069
    130 H60         3.6360   -3.9850   -3.2320 h1        1 MOL      0.103069
    131 H61         3.4200   -1.6160   -3.4520 ho        1 MOL      0.373247
    132 N12         5.4540   -4.4550   -1.2930 n         1 MOL     -0.348012
    133 C43         6.8570   -4.6310   -0.9180 c3        1 MOL      0.142701
    134 C44         7.7180   -3.3610   -1.3570 c         1 MOL      0.488797
    135 O18         8.5720   -2.9800   -0.5920 o         1 MOL     -0.514362
    136 C45         7.4100   -5.9340   -1.4970 c3        1 MOL     -0.316518
    137 H62         5.0510   -4.9710   -2.0570 hn        1 MOL      0.278291
    138 H63         6.9330   -4.6080    0.1690 h1        1 MOL      0.087543
    139 H64         6.7940   -6.7370   -1.1030 hc        1 MOL      0.092120
    140 H65         7.1180   -5.8750   -2.5500 hc        1 MOL      0.092120
    141 H66         8.4730   -6.0120   -1.2660 hc        1 MOL      0.092120
    142 N13         7.3440   -2.5970   -2.3840 n         1 MOL     -0.409930
    143 C46         7.7170   -1.2270   -2.6650 c3        1 MOL      0.101682
    144 C47         7.2440   -0.3050   -1.4870 c         1 MOL      0.273430
    145 O19         7.9530    0.7030   -1.2160 o         1 MOL     -0.509715
    146 C48         6.9680   -0.9330   -3.9900 c3        1 MOL     -0.230557
    147 H67         6.5670   -2.9640   -2.9350 hn        1 MOL      0.231283
    148 H68         8.8060   -1.1310   -2.7500 h1        1 MOL      0.112575
    149 H69         5.9000   -1.1550   -3.9760 hc        1 MOL      0.069102
    150 H70         7.0650    0.0860   -4.3430 hc        1 MOL      0.069102
    151 H71         7.4410   -1.5360   -4.7650 hc        1 MOL      0.069102
    152 N14         6.0950   -0.5730   -0.8070 n         1 MOL      0.283609
    153 C49         5.5150    0.3710    0.1450 c3        1 MOL     -0.196585
    154 C50         6.1050    0.2650    1.5860 c         1 MOL      0.486544
    155 O20         6.2980    1.3170    2.1270 o         1 MOL     -0.572249
    156 C51         3.9760    0.2650    0.1750 c3        1 MOL      0.144427
    157 C52         3.2780    0.7450   -1.1930 c3        1 MOL     -0.138061
    158 C53         1.7740    0.6260   -1.2190 c         1 MOL      0.698674
    159 O21         1.1020    1.6660   -0.9930 o         1 MOL     -0.747442
    160 O22         1.2090   -0.4460   -1.1770 o         1 MOL     -0.747442
    161 H72         5.4970   -1.3630   -1.0070 hn        1 MOL     -0.180667
    162 H73         5.6890    1.3980   -0.1690 h1        1 MOL      0.089239
    163 H74         3.6270    0.8940    0.9870 hc        1 MOL      0.001030
    164 H75         3.7360   -0.7710    0.3810 hc        1 MOL      0.001030
    165 H76         3.7000    0.2010   -2.0300 hc        1 MOL     -0.001933
    166 H77         3.6790    1.7460   -1.3560 hc        1 MOL     -0.001933
    167 N15         6.6420   -0.8330    1.9500 n         1 MOL     -0.123671
    168 C54         7.6650   -0.9430    3.0050 c3        1 MOL     -0.380910
    169 H78         7.3210   -0.4230    3.9000 h1        1 MOL      0.145391
    170 H79         7.8350   -1.9950    3.2390 h1        1 MOL      0.145391
    171 H80         8.5960   -0.4920    2.6590 h1        1 MOL      0.145391
    172 H81         6.4280   -1.6690    1.4170 hn        1 MOL      0.158986
    173 Ca1        -1.2340    0.1920   -1.6700 Ca        1 MOL      1.788607
    174 O23        -1.1650   -2.3610   -1.8960 oh        1 MOL     -0.858055
    175 H82        -0.3970   -2.8630   -2.1470 ho        1 MOL      0.410534
    176 H83        -1.8920   -2.8040   -2.3240 ho        1 MOL      0.410534
    177 O24        -0.3530   -0.5680   -4.0830 oh        1 MOL     -0.858055
    178 H84        -0.7540   -0.2150   -4.8830 ho        1 MOL      0.410534
    179 H85         0.0070   -1.4120   -4.3520 ho        1 MOL      0.410534
@<TRIPOS>BOND
     1    1    2 1   
     2    1    4 1   
     3    1    5 1   
     4    1    6 1   
     5    2    3 2   
     6    2    7 1   
     7    7    8 1   
     8    7   15 1   
     9    8    9 1   
    10    8   11 1   
    11    8   16 1   
    12    9   10 2   
    13    9   19 1   
    14   11   12 1   
    15   11   17 1   
    16   11   18 1   
    17   12   13 1   
    18   12   14 1   
    19   19   20 1   
    20   19   28 1   
    21   20   21 1   
    22   20   23 1   
    23   20   29 1   
    24   21   22 2   
    25   21   41 1   
    26   23   24 1   
    27   23   30 1   
    28   23   31 1   
    29   24   25 1   
    30   24   32 1   
    31   24   33 1   
    32   25   26 1   
    33   25   34 1   
    34   25   35 1   
    35   26   27 1   
    36   26   36 1   
    37   26   37 1   
    38   27   38 1   
    39   27   39 1   
    40   27   40 1   
    41   41   42 1   
    42   41   49 1   
    43   42   43 1   
    44   42   45 1   
    45   42   50 1   
    46   43   44 2   
    47   43   53 1   
    48   45   46 1   
    49   45   51 1   
    50   45   52 1   
    51   46   47 1   
    52   46   48 1   
    53   53   54 1   
    54   53   57 1   
    55   54   55 1   
    56   54   58 1   
    57   54   59 1   
    58   55   56 2   
    59   55   60 1   
    60   60   61 1   
    61   60   68 1   
    62   61   62 1   
    63   61   64 1   
    64   61   69 1   
    65   62   63 2   
    66   62   74 1   
    67   64   65 1   
    68   64   70 1   
    69   64   71 1   
    70   65   66 1   
    71   65   67 2   
    72   66   72 1   
    73   66   73 1   
    74   74   75 1   
    75   74   78 1   
    76   75   76 1   
    77   75   79 1   
    78   75   80 1   
    79   76   77 2   
    80   76   81 1   
    81   81   82 1   
    82   81   93 1   
    83   82   83 1   
    84   82   85 1   
    85   82   94 1   
    86   83   84 2   
    87   83  102 1   
    88   85   86 1   
    89   85   95 1   
    90   85   96 1   
    91   86   87 ar  
    92   86   88 ar  
    93   87   89 ar  
    94   87   97 1   
    95   88   90 ar  
    96   88   98 1   
    97   89   91 ar  
    98   89   99 1   
    99   90   91 ar  
   100   90  100 1   
   101   91   92 1   
   102   92  101 1   
   103  102  103 1   
   104  102  110 1   
   105  103  104 1   
   106  103  106 1   
   107  103  111 1   
   108  104  105 2   
   109  104  121 1   
   110  106  107 1   
   111  106  108 1   
   112  106  112 1   
   113  107  109 1   
   114  107  113 1   
   115  107  114 1   
   116  108  115 1   
   117  108  116 1   
   118  108  117 1   
   119  109  118 1   
   120  109  119 1   
   121  109  120 1   
   122  121  122 1   
   123  121  127 1   
   124  122  123 1   
   125  122  125 1   
   126  122  128 1   
   127  123  124 2   
   128  123  132 1   
   129  125  126 1   
   130  125  129 1   
   131  125  130 1   
   132  126  131 1   
   133  132  133 1   
   134  132  137 1   
   135  133  134 1   
   136  133  136 1   
   137  133  138 1   
   138  134  135 2   
   139  134  142 1   
   140  136  139 1   
   141  136  140 1   
   142  136  141 1   
   143  142  143 1   
   144  142  147 1   
   145  143  144 1   
   146  143  146 1   
   147  143  148 1   
   148  144  145 2   
   149  144  152 1   
   150  146  149 1   
   151  146  150 1   
   152  146  151 1   
   153  152  153 1   
   154  152  161 1   
   155  153  154 1   
   156  153  156 1   
   157  153  162 1   
   158  154  155 2   
   159  154  167 1   
   160  156  157 1   
   161  156  163 1   
   162  156  164 1   
   163  157  158 1   
   164  157  165 1   
   165  157  166 1   
   166  158  159 1   
   167  158  160 1   
   168  167  168 1   
   169  167  172 1   
   170  168  169 1   
   171  168  170 1   
   172  168  171 1   
   173  174  175 1   
   174  174  176 1   
   175  177  178 1   
   176  177  179 1   
@<TRIPOS>SUBSTRUCTURE
     1 MOL         1 TEMP              0 ****  ****    0 ROOT
