@<TRIPOS>MOLECULE
MOL
  189   185     1     0     0
SMALL
resp


@<TRIPOS>ATOM
      1 C1         -0.2240    2.4430    6.2140 c3        1 MOL     -0.323655
      2 C2         -0.4530    1.9590    4.8180 c         1 MOL      0.846588
      3 O1          0.4140    2.1740    3.9880 o         1 MOL     -0.653620
      4 H1          0.2070    3.4440    6.1860 hc        1 MOL      0.077400
      5 H2         -1.1740    2.4740    6.7490 hc        1 MOL      0.077400
      6 H3          0.4600    1.7680    6.7270 hc        1 MOL      0.077400
      7 N1         -1.6030    1.3330    4.4720 n         1 MOL     -0.704669
      8 C3         -2.0740    1.3130    3.0950 c3        1 MOL      0.116414
      9 C4         -2.4270    2.7130    2.6520 c         1 MOL      0.476923
     10 O2         -3.0430    3.4200    3.4590 o         1 MOL     -0.554813
     11 C5         -3.2300    0.3240    2.9700 c3        1 MOL     -0.055407
     12 C6         -3.7990    0.0980    1.5840 c         1 MOL      0.661317
     13 O3         -4.8690   -0.5180    1.4410 o         1 MOL     -0.665266
     14 O4         -3.0520    0.4190    0.6030 o         1 MOL     -0.665266
     15 H4         -2.2960    1.1200    5.1670 hn        1 MOL      0.347507
     16 H5         -1.2640    0.9270    2.4780 h1        1 MOL      0.076102
     17 H6         -4.0050    0.5370    3.7090 hc        1 MOL      0.027512
     18 H7         -2.8300   -0.5830    3.4130 hc        1 MOL      0.027512
     19 N2         -2.0100    3.1060    1.4150 n         1 MOL     -0.125349
     20 C7         -2.2960    4.3620    0.7730 c3        1 MOL      0.001390
     21 C8         -3.4260    4.2890   -0.2760 c         1 MOL      0.523226
     22 O5         -4.3510    5.0400   -0.2400 o         1 MOL     -0.558308
     23 C9         -0.9760    4.9290    0.2870 c3        1 MOL     -0.220096
     24 C10        -1.1080    6.4020   -0.0820 c3        1 MOL     -0.008438
     25 C11        -0.9800    7.3580    1.1400 c3        1 MOL      0.037202
     26 C12        -1.2410    8.9250    0.9290 c3        1 MOL     -0.030597
     27 N3         -2.7150    9.2730    0.6330 n4        1 MOL     -0.425915
     28 H8         -1.6040    2.4050    0.7900 hn        1 MOL     -0.013300
     29 H9         -2.6600    4.9940    1.5910 h1        1 MOL      0.037216
     30 H10        -0.6570    4.4580   -0.6450 hc        1 MOL      0.113038
     31 H11        -0.1810    4.9370    1.0350 hc        1 MOL      0.113038
     32 H12        -2.0900    6.5560   -0.5380 hc        1 MOL      0.005615
     33 H13        -0.3240    6.7120   -0.7800 hc        1 MOL      0.005615
     34 H14         0.0450    7.2300    1.4840 hc        1 MOL      0.044023
     35 H15        -1.6580    7.0860    1.9560 hc        1 MOL      0.044023
     36 H16        -0.5130    9.2310    0.1770 hx        1 MOL      0.093187
     37 H17        -0.9360    9.4060    1.8560 hx        1 MOL      0.093187
     38 H18        -2.9260   10.2630    0.6000 hn        1 MOL      0.352543
     39 H19        -3.0700    8.9190   -0.2440 hn        1 MOL      0.352543
     40 H20        -3.2780    8.9330    1.3980 hn        1 MOL      0.352543
     41 N4         -3.4810    3.2460   -1.1250 n         1 MOL     -0.195185
     42 C13        -4.5470    3.0400   -2.1370 c3        1 MOL     -0.180431
     43 C14        -5.8790    2.6450   -1.5360 c         1 MOL      0.522910
     44 O6         -6.9500    3.2470   -1.8470 o         1 MOL     -0.555739
     45 C15        -4.0890    2.0080   -3.1120 c3        1 MOL     -0.004998
     46 C16        -2.6220    2.1080   -3.5800 c         1 MOL      0.716692
     47 O7         -2.3300    2.9380   -4.4460 o         1 MOL     -0.735147
     48 O8         -1.8350    1.4340   -3.0170 o         1 MOL     -0.735147
     49 H21        -2.6420    2.7000   -1.2290 hn        1 MOL      0.220660
     50 H22        -4.6900    3.9630   -2.6970 h1        1 MOL      0.093434
     51 H23        -4.7480    2.0430   -3.9730 hc        1 MOL     -0.002206
     52 H24        -4.1630    0.9940   -2.7010 hc        1 MOL     -0.002206
     53 N5         -5.8090    1.7440   -0.5680 n         1 MOL     -0.105210
     54 C17        -6.9810    1.1370    0.1180 c3        1 MOL     -0.190812
     55 C18        -7.4330   -0.1420   -0.5300 c         1 MOL      0.512405
     56 O9         -8.6220   -0.3140   -0.8710 o         1 MOL     -0.579554
     57 H25        -4.8820    1.5070   -0.2650 hn        1 MOL      0.069791
     58 H26        -7.8240    1.8180    0.0850 h1        1 MOL      0.108357
     59 H27        -6.7600    0.9160    1.1660 h1        1 MOL      0.108357
     60 N6         -6.4860   -0.9960   -0.8370 n         1 MOL     -0.272343
     61 C19        -6.5820   -2.3340   -1.5660 c3        1 MOL      0.109770
     62 C20        -6.4250   -3.4850   -0.5850 c         1 MOL      0.378844
     63 O10        -6.6980   -4.5940   -1.0480 o         1 MOL     -0.523948
     64 C21        -5.6130   -2.4860   -2.7690 c3        1 MOL     -0.412938
     65 C22        -4.2090   -2.0940   -2.3560 c         1 MOL      0.859727
     66 O11        -3.4400   -1.3690   -3.0270 o         1 MOL     -0.774594
     67 O12        -3.6990   -2.6240   -1.3510 o         1 MOL     -0.774594
     68 H28        -5.5790   -0.7230   -0.4740 hn        1 MOL      0.144974
     69 H29        -7.6050   -2.3780   -1.9350 h1        1 MOL      0.101233
     70 H30        -5.9190   -1.7010   -3.4670 hc        1 MOL      0.129300
     71 H31        -5.6010   -3.5080   -3.1610 hc        1 MOL      0.129300
     72 N7         -6.1390   -3.1720    0.6700 n         1 MOL     -0.274367
     73 C23        -5.9390   -4.0500    1.8410 c3        1 MOL     -0.049273
     74 C24        -4.5090   -4.6200    1.9430 c         1 MOL      0.543277
     75 O13        -4.2920   -5.5500    2.7200 o         1 MOL     -0.581549
     76 H32        -5.8690   -2.2080    0.8230 hn        1 MOL      0.233274
     77 H33        -6.6370   -4.8750    1.7580 h1        1 MOL      0.083929
     78 H34        -6.1140   -3.5960    2.8180 h1        1 MOL      0.083929
     79 N8         -3.5180   -4.2030    1.1350 n         1 MOL     -0.348517
     80 C25        -2.1410   -4.7920    0.9770 c3        1 MOL     -0.047330
     81 C26        -1.1130   -3.6460    0.8810 c         1 MOL      0.648579
     82 O14        -1.4340   -2.4530    0.6720 o         1 MOL     -0.665775
     83 C27        -2.0750   -5.6850   -0.3360 c3        1 MOL      0.489522
     84 C28        -2.5240   -7.1020    0.0100 c3        1 MOL     -0.475225
     85 O15        -2.8890   -5.1290   -1.4140 oh        1 MOL     -0.667614
     86 H35        -3.6600   -3.3460    0.6280 hn        1 MOL      0.282985
     87 H36        -1.9530   -5.4010    1.8580 h1        1 MOL      0.089241
     88 H37        -1.0500   -5.7160   -0.6990 h1        1 MOL     -0.029841
     89 H38        -3.4080   -4.4180   -1.0460 ho        1 MOL      0.445373
     90 H39        -3.4340   -7.0990    0.6080 hc        1 MOL      0.121631
     91 H40        -2.8240   -7.6330   -0.8950 hc        1 MOL      0.121631
     92 H41        -1.6470   -7.5540    0.4690 hc        1 MOL      0.121631
     93 N9          0.1350   -4.0210    1.2120 n         1 MOL     -0.706620
     94 C29         1.2840   -3.1370    1.4670 c3        1 MOL      0.271353
     95 C30         2.3570   -3.5140    0.4850 c         1 MOL      0.480119
     96 O16         2.8230   -4.6680    0.5200 o         1 MOL     -0.540559
     97 C31         1.8300   -3.1770    2.8950 c3        1 MOL      0.114343
     98 C32         0.7610   -2.5650    3.8410 c3        1 MOL      0.010804
     99 C33         3.0840   -2.3370    3.0510 c3        1 MOL     -0.176728
    100 C34         1.2110   -2.2630    5.2720 c3        1 MOL     -0.346408
    101 H42         0.2960   -4.9990    1.4080 hn        1 MOL      0.325297
    102 H43         0.9880   -2.0920    1.3320 h1        1 MOL      0.041855
    103 H44         2.0900   -4.2180    3.1070 hc        1 MOL     -0.006288
    104 H45        -0.0430   -3.2930    3.8220 hc        1 MOL      0.025040
    105 H46         0.3740   -1.6360    3.4170 hc        1 MOL      0.025040
    106 H47         2.8740   -1.2670    2.9620 hc        1 MOL      0.007118
    107 H48         3.7020   -2.4600    3.9470 hc        1 MOL      0.007118
    108 H49         3.7500   -2.4680    2.2070 hc        1 MOL      0.007118
    109 H50         1.6670   -3.1660    5.6680 hc        1 MOL      0.097600
    110 H51         1.9560   -1.4830    5.1020 hc        1 MOL      0.097600
    111 H52         0.4230   -1.8440    5.8990 hc        1 MOL      0.097600
    112 N10         2.6780   -2.5300   -0.3790 n         1 MOL     -0.245567
    113 C35         3.8480   -2.5440   -1.2800 c3        1 MOL     -0.044543
    114 C36         5.1240   -1.9970   -0.5850 c         1 MOL      0.420847
    115 O17         5.0180   -1.2710    0.3620 o         1 MOL     -0.234344
    116 C37         3.5810   -1.6260   -2.5310 c3        1 MOL      0.135260
    117 C38         2.5220   -2.3110   -3.3550 c3        1 MOL     -0.136962
    118 O18         3.0880   -0.3370   -2.1670 oh        1 MOL     -0.667463
    119 H53         2.2430   -1.6240   -0.3130 hn        1 MOL      0.086054
    120 H54         3.9220   -3.5230   -1.7420 h1        1 MOL      0.091973
    121 H55         4.5060   -1.4810   -3.0930 h1        1 MOL      0.044663
    122 H56         2.2990   -0.4960   -1.6540 ho        1 MOL      0.422956
    123 H57         1.6670   -2.6030   -2.7450 hc        1 MOL      0.044588
    124 H58         2.1640   -1.5950   -4.1070 hc        1 MOL      0.044588
    125 H59         2.8600   -3.2000   -3.8650 hc        1 MOL      0.044588
    126 N11         6.3000   -2.3250   -1.1140 n         1 MOL     -0.416160
    127 C39         7.6530   -1.8110   -0.6910 c3        1 MOL      0.041539
    128 C40         7.7660   -0.3570   -0.3010 c         1 MOL      0.233108
    129 O19         8.3280   -0.0080    0.7480 o         1 MOL     -0.446215
    130 C41         8.6490   -2.0530   -1.8660 c3        1 MOL      0.414188
    131 C42        10.1440   -1.9750   -1.4690 c3        1 MOL     -0.528127
    132 O20         8.5280   -3.3630   -2.3270 oh        1 MOL     -0.593938
    133 H60         6.2960   -2.8130   -1.9930 hn        1 MOL      0.224165
    134 H61         7.9990   -2.4430    0.1200 h1        1 MOL      0.132316
    135 H62         8.3270   -1.4540   -2.7140 h1        1 MOL     -0.041874
    136 H63         8.5350   -3.3030   -3.2860 ho        1 MOL      0.391864
    137 H64        10.3660   -0.9680   -1.1340 hc        1 MOL      0.152070
    138 H65        10.2670   -2.6230   -0.5950 hc        1 MOL      0.152070
    139 H66        10.7920   -2.2830   -2.2980 hc        1 MOL      0.152070
    140 N12         7.1890    0.5420   -1.0700 n         1 MOL     -0.183159
    141 C43         7.0960    1.9780   -0.8160 c3        1 MOL     -0.023217
    142 C44         6.2500    2.3590    0.4410 c         1 MOL      0.354962
    143 O21         6.5490    3.2690    1.1840 o         1 MOL     -0.485001
    144 C45         6.5540    2.6770   -2.0680 c3        1 MOL     -0.412200
    145 C46         5.3270    2.0770   -2.7550 c3        1 MOL      0.121792
    146 C47         4.5410    2.9210   -3.8200 c3        1 MOL     -0.113488
    147 C48         3.2640    2.1840   -4.2070 c3        1 MOL      0.092643
    148 N13         2.5090    2.9100   -5.2300 n4        1 MOL     -0.378195
    149 H67         6.7430    0.1440   -1.8770 hn        1 MOL      0.158452
    150 H68         8.1240    2.3160   -0.7310 h1        1 MOL      0.145739
    151 H69         7.3310    2.6650   -2.8330 hc        1 MOL      0.136578
    152 H70         6.3460    3.7090   -1.7990 hc        1 MOL      0.136578
    153 H71         4.5940    1.7250   -2.0210 hc        1 MOL      0.033508
    154 H72         5.6130    1.2400   -3.3900 hc        1 MOL      0.033508
    155 H73         5.2420    3.0930   -4.6360 hc        1 MOL      0.041350
    156 H74         4.2320    3.8680   -3.3750 hc        1 MOL      0.041350
    157 H75         2.6160    2.0220   -3.3430 hx        1 MOL      0.075946
    158 H76         3.5380    1.2150   -4.6070 hx        1 MOL      0.075946
    159 H77         1.6410    2.4580   -5.4650 hn        1 MOL      0.325754
    160 H78         2.3170    3.8240   -4.8460 hn        1 MOL      0.325754
    161 H79         3.1010    3.1780   -5.9990 hn        1 MOL      0.325754
    162 N14         5.1470    1.6310    0.6340 n         1 MOL     -0.055114
    163 C49         4.1710    1.7530    1.7700 c3        1 MOL     -0.172551
    164 C50         4.7890    1.1980    3.0170 c         1 MOL      0.466858
    165 O22         4.6600    1.6840    4.1410 o         1 MOL     -0.541861
    166 C51         2.8560    1.0570    1.4050 c3        1 MOL      0.112102
    167 C52         2.0450    1.7720    0.3170 c3        1 MOL     -0.126205
    168 C53         0.8790    0.9660   -0.2380 c         1 MOL      0.652392
    169 O23         0.9490   -0.2100   -0.5490 o         1 MOL     -0.649630
    170 O24        -0.2230    1.5080   -0.4020 o         1 MOL     -0.649630
    171 H80         4.9640    0.8650   -0.0050 hn        1 MOL      0.131584
    172 H81         3.9810    2.8200    1.9030 h1        1 MOL      0.117842
    173 H82         2.2060    0.7520    2.2310 hc        1 MOL      0.076209
    174 H83         3.1100    0.0890    0.9850 hc        1 MOL      0.076209
    175 H84         2.7890    2.0540   -0.4240 hc        1 MOL      0.005871
    176 H85         1.6680    2.7170    0.6980 hc        1 MOL      0.005871
    177 N15         5.5960    0.1180    2.8540 n         1 MOL     -0.022445
    178 C54         6.4740   -0.4730    3.9350 c3        1 MOL     -0.394360
    179 H86         6.8490    0.3250    4.5750 h1        1 MOL      0.142916
    180 H87         5.8920   -1.1760    4.5330 h1        1 MOL      0.142916
    181 H88         7.3150   -0.9940    3.4760 h1        1 MOL      0.142916
    182 H89         5.7880   -0.1320    1.8950 hn        1 MOL      0.059322
    183 Ca1        -1.4620   -0.6280   -1.4370 Ca        1 MOL      1.768011
    184 O25         0.0460   -0.3670   -3.6550 oh        1 MOL     -0.858492
    185 H90         0.3830   -0.8930   -4.3780 ho        1 MOL      0.407579
    186 H91        -0.0400    0.5130   -4.0150 ho        1 MOL      0.407579
    187 O26        -0.9900   -3.2220   -2.3830 oh        1 MOL     -0.858492
    188 H92        -0.8400   -3.4910   -3.2900 ho        1 MOL      0.407579
    189 H93        -1.7000   -3.7840   -2.0700 ho        1 MOL      0.407579
@<TRIPOS>BOND
     1    1    2 1   
     2    1    4 1   
     3    1    5 1   
     4    1    6 1   
     5    2    3 2   
     6    2    7 1   
     7    7    8 1   
     8    7   15 1   
     9    8    9 1   
    10    8   11 1   
    11    8   16 1   
    12    9   10 2   
    13    9   19 1   
    14   11   12 1   
    15   11   17 1   
    16   11   18 1   
    17   12   13 1   
    18   12   14 1   
    19   19   20 1   
    20   19   28 1   
    21   20   21 1   
    22   20   23 1   
    23   20   29 1   
    24   21   22 2   
    25   21   41 1   
    26   23   24 1   
    27   23   30 1   
    28   23   31 1   
    29   24   25 1   
    30   24   32 1   
    31   24   33 1   
    32   25   26 1   
    33   25   34 1   
    34   25   35 1   
    35   26   27 1   
    36   26   36 1   
    37   26   37 1   
    38   27   38 1   
    39   27   39 1   
    40   27   40 1   
    41   41   42 1   
    42   41   49 1   
    43   42   43 1   
    44   42   45 1   
    45   42   50 1   
    46   43   44 2   
    47   43   53 1   
    48   45   46 1   
    49   45   51 1   
    50   45   52 1   
    51   46   47 1   
    52   46   48 1   
    53   53   54 1   
    54   53   57 1   
    55   54   55 1   
    56   54   58 1   
    57   54   59 1   
    58   55   56 2   
    59   55   60 1   
    60   60   61 1   
    61   60   68 1   
    62   61   62 1   
    63   61   64 1   
    64   61   69 1   
    65   62   63 2   
    66   62   72 1   
    67   64   65 1   
    68   64   70 1   
    69   64   71 1   
    70   65   66 1   
    71   65   67 1   
    72   72   73 1   
    73   72   76 1   
    74   73   74 1   
    75   73   77 1   
    76   73   78 1   
    77   74   75 2   
    78   74   79 1   
    79   79   80 1   
    80   79   86 1   
    81   80   81 1   
    82   80   83 1   
    83   80   87 1   
    84   81   82 2   
    85   81   93 1   
    86   83   84 1   
    87   83   85 1   
    88   83   88 1   
    89   84   90 1   
    90   84   91 1   
    91   84   92 1   
    92   85   89 1   
    93   93   94 1   
    94   93  101 1   
    95   94   95 1   
    96   94   97 1   
    97   94  102 1   
    98   95   96 2   
    99   95  112 1   
   100   97   98 1   
   101   97   99 1   
   102   97  103 1   
   103   98  100 1   
   104   98  104 1   
   105   98  105 1   
   106   99  106 1   
   107   99  107 1   
   108   99  108 1   
   109  100  109 1   
   110  100  110 1   
   111  100  111 1   
   112  112  113 1   
   113  112  119 1   
   114  113  114 1   
   115  113  116 1   
   116  113  120 1   
   117  114  115 2   
   118  114  126 1   
   119  116  117 1   
   120  116  118 1   
   121  116  121 1   
   122  117  123 1   
   123  117  124 1   
   124  117  125 1   
   125  118  122 1   
   126  126  127 1   
   127  126  133 1   
   128  127  128 1   
   129  127  130 1   
   130  127  134 1   
   131  128  129 2   
   132  128  140 1   
   133  130  131 1   
   134  130  132 1   
   135  130  135 1   
   136  131  137 1   
   137  131  138 1   
   138  131  139 1   
   139  132  136 1   
   140  140  141 1   
   141  140  149 1   
   142  141  142 1   
   143  141  144 1   
   144  141  150 1   
   145  142  143 2   
   146  142  162 1   
   147  144  145 1   
   148  144  151 1   
   149  144  152 1   
   150  145  146 1   
   151  145  153 1   
   152  145  154 1   
   153  146  147 1   
   154  146  155 1   
   155  146  156 1   
   156  147  148 1   
   157  147  157 1   
   158  147  158 1   
   159  148  159 1   
   160  148  160 1   
   161  148  161 1   
   162  162  163 1   
   163  162  171 1   
   164  163  164 1   
   165  163  166 1   
   166  163  172 1   
   167  164  165 2   
   168  164  177 1   
   169  166  167 1   
   170  166  173 1   
   171  166  174 1   
   172  167  168 1   
   173  167  175 1   
   174  167  176 1   
   175  168  169 1   
   176  168  170 1   
   177  177  178 1   
   178  177  182 1   
   179  178  179 1   
   180  178  180 1   
   181  178  181 1   
   182  184  185 1   
   183  184  186 1   
   184  187  188 1   
   185  187  189 1   
@<TRIPOS>SUBSTRUCTURE
     1 MOL         1 TEMP              0 ****  ****    0 ROOT
