@<TRIPOS>MOLECULE
MOL
  186   183     1     0     0
SMALL
resp


@<TRIPOS>ATOM
      1 C1          0.7890   -1.3910    6.3590 c3        1 MOL     -0.464915
      2 C2          0.9180   -1.4450    4.8350 c         1 MOL      0.656155
      3 O1          0.8880   -0.4230    4.1590 o         1 MOL     -0.455339
      4 H1         -0.2650   -1.4060    6.6350 hc        1 MOL      0.119741
      5 H2          1.2910   -2.2530    6.7970 hc        1 MOL      0.119741
      6 H3          1.2490   -0.4750    6.7300 hc        1 MOL      0.119741
      7 N1          1.2480   -2.6710    4.3350 n         1 MOL     -0.564999
      8 C3          1.9000   -2.8530    2.9810 c3        1 MOL      0.139947
      9 C4          1.7460   -4.3030    2.4740 c         1 MOL      0.572291
     10 O2          1.7380   -5.2910    3.1630 o         1 MOL     -0.593191
     11 C5          3.4380   -2.6820    3.2130 c3        1 MOL     -0.137298
     12 C6          4.2740   -2.6420    1.9530 c         1 MOL      0.603211
     13 O3          5.4230   -3.1240    1.9910 o         1 MOL     -0.638172
     14 O4          3.7350   -2.2310    0.9000 o         1 MOL     -0.638172
     15 H4          1.2640   -3.4050    5.0320 hn        1 MOL      0.309020
     16 H5          1.4600   -2.1530    2.2810 h1        1 MOL     -0.042301
     17 H6          3.7510   -3.4730    3.8960 hc        1 MOL      0.024169
     18 H7          3.6390   -1.7500    3.7530 hc        1 MOL      0.024169
     19 N2          1.6980   -4.4010    1.1440 n         1 MOL     -0.122749
     20 C7          1.7640   -5.6650    0.4080 c3        1 MOL     -0.135886
     21 C8          2.6210   -5.5190   -0.8860 c         1 MOL      0.429412
     22 O5          2.6090   -6.5130   -1.6560 o         1 MOL     -0.585797
     23 C9          0.2900   -6.1390   -0.0210 c3        1 MOL      0.175045
     24 C10        -0.2740   -5.2150   -1.0470 c3        1 MOL     -0.014836
     25 C11        -0.5410   -6.4880    1.2480 c3        1 MOL     -0.061753
     26 C12        -1.7960   -5.4510   -1.3160 c3        1 MOL     -0.212910
     27 H8          1.6750   -3.5770    0.5510 hn        1 MOL      0.123875
     28 H9          2.1600   -6.4870    1.0000 h1        1 MOL      0.101859
     29 H10         0.3960   -7.1190   -0.4860 hc        1 MOL     -0.034215
     30 H11         0.2590   -5.4200   -1.9810 hc        1 MOL      0.042094
     31 H12        -0.1330   -4.1860   -0.7150 hc        1 MOL      0.042094
     32 H13        -1.4880   -6.9570    0.9810 hc        1 MOL      0.000768
     33 H14        -0.0390   -7.2090    1.8950 hc        1 MOL      0.000768
     34 H15        -0.6790   -5.6000    1.8610 hc        1 MOL      0.000768
     35 H16        -2.4730   -5.3810   -0.4620 hc        1 MOL      0.047817
     36 H17        -2.2080   -4.6810   -1.9600 hc        1 MOL      0.047817
     37 H18        -1.8730   -6.3570   -1.9220 hc        1 MOL      0.047817
     38 N3          3.3720   -4.4940   -1.1600 n         1 MOL     -0.210714
     39 C13         4.1460   -4.2990   -2.4220 c3        1 MOL     -0.024038
     40 C14         5.5490   -3.8500   -2.2580 c         1 MOL      0.431020
     41 O6          6.4540   -4.4050   -2.9220 o         1 MOL     -0.579861
     42 C15         3.3740   -3.3810   -3.4220 c3        1 MOL     -0.188415
     43 C16         3.0080   -1.9880   -2.9990 c         1 MOL      0.659254
     44 O7          3.4770   -1.4810   -1.9830 o         1 MOL     -0.690420
     45 O8          2.1420   -1.4960   -3.7550 o         1 MOL     -0.690420
     46 H19         3.5320   -3.8300   -0.4140 hn        1 MOL      0.134974
     47 H20         4.2560   -5.2570   -2.9240 h1        1 MOL      0.077001
     48 H21         2.4490   -3.9420   -3.5640 hc        1 MOL      0.069619
     49 H22         3.9490   -3.3650   -4.3500 hc        1 MOL      0.069619
     50 N4          5.7220   -3.0180   -1.2880 n         1 MOL      0.060229
     51 C17         7.0390   -2.5840   -0.8680 c3        1 MOL     -0.440728
     52 C18         7.6780   -1.4650   -1.7550 c         1 MOL      0.696266
     53 O9          8.7190   -1.5610   -2.4280 o         1 MOL     -0.563430
     54 H23         4.9580   -2.6860   -0.7250 hn        1 MOL      0.150398
     55 H24         7.6750   -3.4660   -0.9080 h1        1 MOL      0.131851
     56 H25         6.9440   -2.2120    0.1600 h1        1 MOL      0.131851
     57 N5          6.9850   -0.3110   -1.5370 n         1 MOL     -0.467731
     58 C19         7.3850    1.0130   -2.0600 c3        1 MOL     -0.022484
     59 C20         7.6100    2.2450   -1.1670 c         1 MOL      0.514276
     60 O10         8.0680    3.3140   -1.5960 o         1 MOL     -0.534999
     61 C21         6.2980    1.3210   -3.0860 c3        1 MOL     -0.068382
     62 C22         4.9040    1.6030   -2.4880 c         1 MOL      0.678834
     63 O11         4.6520    1.4860   -1.2250 o         1 MOL     -0.651585
     64 O12         4.0250    2.1400   -3.1850 o         1 MOL     -0.651585
     65 H26         6.1310   -0.3010   -1.0120 hn        1 MOL      0.140228
     66 H27         8.2760    0.8800   -2.6740 h1        1 MOL      0.099246
     67 H28         6.3160    0.5080   -3.8080 hc        1 MOL      0.036683
     68 H29         6.5180    2.2160   -3.6540 hc        1 MOL      0.036683
     69 N6          7.2370    2.1300    0.1380 n         1 MOL     -0.426663
     70 C23         7.2290    3.2100    1.1030 c3        1 MOL     -0.057568
     71 C24         5.9240    4.0000    1.2840 c         1 MOL      0.482429
     72 O13         5.9780    5.0060    1.9210 o         1 MOL     -0.616086
     73 H30         6.7840    1.2900    0.4890 hn        1 MOL      0.292817
     74 H31         8.0030    3.9340    0.8140 h1        1 MOL      0.079934
     75 H32         7.5220    2.7140    2.0360 h1        1 MOL      0.079934
     76 N7          4.7650    3.6600    0.7780 n         1 MOL     -0.184525
     77 C25         3.4600    4.4590    0.9110 c3        1 MOL     -0.180304
     78 C26         2.2360    3.5430    0.9470 c         1 MOL      0.464445
     79 O14         2.1700    2.5330    0.2340 o         1 MOL     -0.512491
     80 C27         3.3200    5.3860   -0.2680 c3        1 MOL      0.066577
     81 C28         4.5340    6.2500   -0.5130 c3        1 MOL     -0.460831
     82 C29         4.1830    7.4080   -1.3940 c         1 MOL      0.762211
     83 N8          5.1910    8.1370   -1.8330 n         1 MOL     -0.822004
     84 O15         3.0020    7.7800   -1.5960 o         1 MOL     -0.587410
     85 H33         4.6980    2.7790    0.2850 hn        1 MOL      0.165030
     86 H34         3.5620    5.1350    1.7650 h1        1 MOL      0.125039
     87 H35         2.5090    6.0530    0.0540 hc        1 MOL      0.057715
     88 H36         2.9780    4.9530   -1.2090 hc        1 MOL      0.057715
     89 H37         5.3060    5.6090   -0.9400 hc        1 MOL      0.169252
     90 H38         4.7850    6.5540    0.5030 hc        1 MOL      0.169252
     91 H39         6.1370    7.9250   -1.5460 hn        1 MOL      0.351301
     92 H40         5.0900    9.0450   -2.2540 hn        1 MOL      0.351301
     93 N9          1.3750    3.7300    1.9830 n         1 MOL     -0.433305
     94 C30         0.1680    2.9100    2.1540 c3        1 MOL     -0.033787
     95 C31        -0.8400    3.2810    1.0800 c         1 MOL      0.528986
     96 O16        -1.3480    4.3900    1.0000 o         1 MOL     -0.600564
     97 C32        -0.3830    3.2480    3.5440 c3        1 MOL      0.289070
     98 C33        -1.6890    2.4470    3.8150 c3        1 MOL     -0.255950
     99 C34         0.5880    3.0940    4.7570 c3        1 MOL     -0.255950
    100 H41         1.5010    4.5620    2.5310 hn        1 MOL      0.286886
    101 H42         0.3700    1.8510    2.0760 h1        1 MOL      0.148441
    102 H43        -0.7340    4.2760    3.4910 hc        1 MOL     -0.049840
    103 H44        -1.3570    1.4120    3.8450 hc        1 MOL      0.045663
    104 H45        -2.1630    2.8420    4.7070 hc        1 MOL      0.045663
    105 H46        -2.4120    2.5820    3.0120 hc        1 MOL      0.045663
    106 H47         1.3590    3.8570    4.6500 hc        1 MOL      0.045663
    107 H48         0.0240    3.1390    5.6800 hc        1 MOL      0.045663
    108 H49         1.0130    2.0930    4.7050 hc        1 MOL      0.045663
    109 N10        -1.1840    2.2790    0.2730 n         1 MOL     -0.113300
    110 C35        -2.2620    2.3940   -0.7310 c3        1 MOL      0.032085
    111 C36        -3.5850    2.0400   -0.1100 c         1 MOL      0.186166
    112 O17        -3.6410    1.2460    0.8690 o         1 MOL     -0.206107
    113 C37        -1.8800    1.5310   -1.9510 c3        1 MOL     -0.144480
    114 C38        -2.9620    1.4280   -3.0920 c         1 MOL      0.621671
    115 N11        -3.0050    2.3800   -4.0480 n         1 MOL     -0.774719
    116 O18        -3.8600    0.5780   -3.1090 o         1 MOL     -0.516425
    117 H50        -0.6930    1.4220    0.4460 hn        1 MOL     -0.034251
    118 H51        -2.3810    3.4240   -1.0760 h1        1 MOL      0.067594
    119 H52        -1.6140    0.5210   -1.6520 hc        1 MOL      0.093551
    120 H53        -0.9180    1.8950   -2.3400 hc        1 MOL      0.093551
    121 H54        -2.4120    3.1930   -4.0380 hn        1 MOL      0.357248
    122 H55        -3.6920    2.2300   -4.7780 hn        1 MOL      0.357248
    123 N12        -4.7550    2.5250   -0.6340 n         1 MOL     -0.281566
    124 C39        -6.1330    2.2930   -0.3410 c3        1 MOL      0.174134
    125 C40        -6.4220    0.7710   -0.0520 c         1 MOL      0.823210
    126 O19        -7.1360    0.5390    0.8850 o         1 MOL     -0.630029
    127 C41        -7.0550    2.8880   -1.4490 c3        1 MOL     -0.218968
    128 C42        -8.5320    2.6070   -1.2140 ca        1 MOL     -0.013811
    129 C43        -9.2540    3.4100   -0.2770 ca        1 MOL     -0.144043
    130 C44        -9.2300    1.6340   -1.9590 ca        1 MOL     -0.144043
    131 C45       -10.6150    3.3290   -0.1910 ca        1 MOL     -0.205950
    132 C46       -10.5850    1.5040   -1.8780 ca        1 MOL     -0.205950
    133 C47       -11.2990    2.3370   -0.9810 ca        1 MOL      0.325989
    134 O20       -12.6430    2.2430   -0.9190 oh        1 MOL     -0.576332
    135 H56        -4.6100    3.1880   -1.3900 hn        1 MOL      0.192748
    136 H57        -6.3460    2.8020    0.6010 h1        1 MOL     -0.010297
    137 H58        -6.8020    2.3760   -2.3700 hc        1 MOL      0.071374
    138 H59        -6.9540    3.9750   -1.4810 hc        1 MOL      0.071374
    139 H60        -8.7920    4.2230    0.2570 ha        1 MOL      0.123361
    140 H61        -8.7180    1.0030   -2.6820 ha        1 MOL      0.123361
    141 H62       -11.1640    4.0880    0.3470 ha        1 MOL      0.120414
    142 H63       -11.0610    0.9250   -2.6670 ha        1 MOL      0.120414
    143 H64       -12.9200    1.5580   -1.5300 ho        1 MOL      0.417542
    144 N13        -5.9010   -0.1540   -0.8760 n         1 MOL     -0.247136
    145 C48        -6.1100   -1.6530   -0.6970 c3        1 MOL     -0.246929
    146 C49        -5.2610   -2.3200    0.3960 c         1 MOL      0.531941
    147 O21        -5.4860   -3.4950    0.5990 o         1 MOL     -0.525345
    148 C50        -5.8770   -2.3860   -2.0420 c3        1 MOL      0.262090
    149 C51        -6.7650   -1.9980   -3.1800 c3        1 MOL     -0.170033
    150 C52        -8.1300   -2.7100   -3.1890 c         1 MOL      0.675079
    151 O22        -9.0670   -2.0860   -2.7040 o         1 MOL     -0.724308
    152 O23        -8.2280   -3.8170   -3.7300 o         1 MOL     -0.724308
    153 H65        -5.1980    0.1320   -1.5540 hn        1 MOL      0.066099
    154 H66        -7.1420   -1.7980   -0.3850 h1        1 MOL      0.144501
    155 H67        -5.9200   -3.4720   -1.9870 hc        1 MOL     -0.028806
    156 H68        -4.8370   -2.1830   -2.2970 hc        1 MOL     -0.028806
    157 H69        -6.1820   -2.3320   -4.0320 hc        1 MOL     -0.001714
    158 H70        -6.9720   -0.9340   -3.3000 hc        1 MOL     -0.001714
    159 N14        -4.4720   -1.5350    1.1580 n         1 MOL     -0.483973
    160 C53        -3.5810   -1.8950    2.2720 c3        1 MOL      0.131797
    161 C54        -4.0520   -1.1040    3.5340 c         1 MOL      0.436682
    162 O24        -4.0310   -1.6840    4.6390 o         1 MOL     -0.584688
    163 C55        -2.0680   -1.6530    2.0470 c3        1 MOL      0.118562
    164 C56        -1.6030   -1.8150    0.6000 c3        1 MOL     -0.311301
    165 C57        -0.1360   -1.2300    0.4550 c         1 MOL      0.555337
    166 O25         0.7180   -1.8760   -0.1320 o         1 MOL     -0.540000
    167 O26         0.1920   -0.0810    0.8030 o         1 MOL     -0.540000
    168 H71        -4.2670   -0.6090    0.8030 hn        1 MOL      0.319153
    169 H72        -3.6320   -2.9460    2.5700 h1        1 MOL      0.047700
    170 H73        -1.5370   -2.3890    2.6510 hc        1 MOL     -0.029390
    171 H74        -1.8720   -0.7170    2.5540 hc        1 MOL     -0.029390
    172 H75        -2.2390   -1.1100    0.0740 hc        1 MOL      0.098357
    173 H76        -1.6710   -2.8630    0.2920 hc        1 MOL      0.098357
    174 N15        -4.6640    0.0960    3.3940 n         1 MOL      0.014150
    175 C58        -5.3650    0.9060    4.3530 c3        1 MOL     -0.251936
    176 H77        -6.3400    0.4620    4.5590 h1        1 MOL      0.093246
    177 H78        -4.7890    0.9590    5.2760 h1        1 MOL      0.093246
    178 H79        -5.5010    1.9100    3.9510 h1        1 MOL      0.093246
    179 H80        -4.5970    0.4590    2.4500 hn        1 MOL     -0.097083
    180 Ca1         2.7520    0.0290   -0.0520 Ca        1 MOL      1.689986
    181 O27         2.8060    0.5960    2.5880 oh        1 MOL     -0.892709
    182 H81         3.5460    0.8650    3.1350 ho        1 MOL      0.406481
    183 H82         2.1590    0.2570    3.2160 ho        1 MOL      0.406481
    184 O28         1.7680    0.8840   -2.4180 oh        1 MOL     -0.892709
    185 H83         2.4660    1.4690   -2.7230 ho        1 MOL      0.406481
    186 H84         1.7990    0.1410   -3.0270 ho        1 MOL      0.406481
@<TRIPOS>BOND
     1    1    2 1   
     2    1    4 1   
     3    1    5 1   
     4    1    6 1   
     5    2    3 2   
     6    2    7 1   
     7    7    8 1   
     8    7   15 1   
     9    8    9 1   
    10    8   11 1   
    11    8   16 1   
    12    9   10 2   
    13    9   19 1   
    14   11   12 1   
    15   11   17 1   
    16   11   18 1   
    17   12   13 1   
    18   12   14 1   
    19   19   20 1   
    20   19   27 1   
    21   20   21 1   
    22   20   23 1   
    23   20   28 1   
    24   21   22 2   
    25   21   38 1   
    26   23   24 1   
    27   23   25 1   
    28   23   29 1   
    29   24   26 1   
    30   24   30 1   
    31   24   31 1   
    32   25   32 1   
    33   25   33 1   
    34   25   34 1   
    35   26   35 1   
    36   26   36 1   
    37   26   37 1   
    38   38   39 1   
    39   38   46 1   
    40   39   40 1   
    41   39   42 1   
    42   39   47 1   
    43   40   41 2   
    44   40   50 1   
    45   42   43 1   
    46   42   48 1   
    47   42   49 1   
    48   43   44 1   
    49   43   45 1   
    50   50   51 1   
    51   50   54 1   
    52   51   52 1   
    53   51   55 1   
    54   51   56 1   
    55   52   53 2   
    56   52   57 1   
    57   57   58 1   
    58   57   65 1   
    59   58   59 1   
    60   58   61 1   
    61   58   66 1   
    62   59   60 2   
    63   59   69 1   
    64   61   62 1   
    65   61   67 1   
    66   61   68 1   
    67   62   63 1   
    68   62   64 1   
    69   69   70 1   
    70   69   73 1   
    71   70   71 1   
    72   70   74 1   
    73   70   75 1   
    74   71   72 2   
    75   71   76 1   
    76   76   77 1   
    77   76   85 1   
    78   77   78 1   
    79   77   80 1   
    80   77   86 1   
    81   78   79 2   
    82   78   93 1   
    83   80   81 1   
    84   80   87 1   
    85   80   88 1   
    86   81   82 1   
    87   81   89 1   
    88   81   90 1   
    89   82   83 1   
    90   82   84 2   
    91   83   91 1   
    92   83   92 1   
    93   93   94 1   
    94   93  100 1   
    95   94   95 1   
    96   94   97 1   
    97   94  101 1   
    98   95   96 2   
    99   95  109 1   
   100   97   98 1   
   101   97   99 1   
   102   97  102 1   
   103   98  103 1   
   104   98  104 1   
   105   98  105 1   
   106   99  106 1   
   107   99  107 1   
   108   99  108 1   
   109  109  110 1   
   110  109  117 1   
   111  110  111 1   
   112  110  113 1   
   113  110  118 1   
   114  111  112 2   
   115  111  123 1   
   116  113  114 1   
   117  113  119 1   
   118  113  120 1   
   119  114  115 1   
   120  114  116 2   
   121  115  121 1   
   122  115  122 1   
   123  123  124 1   
   124  123  135 1   
   125  124  125 1   
   126  124  127 1   
   127  124  136 1   
   128  125  126 2   
   129  125  144 1   
   130  127  128 1   
   131  127  137 1   
   132  127  138 1   
   133  128  129 ar  
   134  128  130 ar  
   135  129  131 ar  
   136  129  139 1   
   137  130  132 ar  
   138  130  140 1   
   139  131  133 ar  
   140  131  141 1   
   141  132  133 ar  
   142  132  142 1   
   143  133  134 1   
   144  134  143 1   
   145  144  145 1   
   146  144  153 1   
   147  145  146 1   
   148  145  148 1   
   149  145  154 1   
   150  146  147 2   
   151  146  159 1   
   152  148  149 1   
   153  148  155 1   
   154  148  156 1   
   155  149  150 1   
   156  149  157 1   
   157  149  158 1   
   158  150  151 1   
   159  150  152 1   
   160  159  160 1   
   161  159  168 1   
   162  160  161 1   
   163  160  163 1   
   164  160  169 1   
   165  161  162 2   
   166  161  174 1   
   167  163  164 1   
   168  163  170 1   
   169  163  171 1   
   170  164  165 1   
   171  164  172 1   
   172  164  173 1   
   173  165  166 1   
   174  165  167 1   
   175  174  175 1   
   176  174  179 1   
   177  175  176 1   
   178  175  177 1   
   179  175  178 1   
   180  181  182 1   
   181  181  183 1   
   182  184  185 1   
   183  184  186 1   
@<TRIPOS>SUBSTRUCTURE
     1 MOL         1 TEMP              0 ****  ****    0 ROOT
