@<TRIPOS>MOLECULE
MOL
  179   176     1     0     0
SMALL
resp


@<TRIPOS>ATOM
      1 C1          1.7720    3.5140    6.3070 c3        1 MOL     -0.434606
      2 C2          1.8050    3.0320    4.7960 c         1 MOL      0.757550
      3 O1          2.8330    2.9470    4.2010 o         1 MOL     -0.547618
      4 H1          0.9850    2.9810    6.8410 hc        1 MOL      0.108689
      5 H2          2.7340    3.3050    6.7770 hc        1 MOL      0.108689
      6 H3          1.5750    4.5850    6.3430 hc        1 MOL      0.108689
      7 N1          0.5980    2.7860    4.2450 n         1 MOL     -0.641513
      8 C3          0.3510    2.5820    2.8140 c3        1 MOL     -0.032230
      9 C4          0.5330    3.8440    2.0220 c         1 MOL      0.667812
     10 O2          0.3580    4.9670    2.5610 o         1 MOL     -0.556678
     11 C5         -1.1270    2.0870    2.7210 c3        1 MOL     -0.034139
     12 C6         -1.6140    1.5730    1.3840 c         1 MOL      0.735544
     13 O3         -0.9160    1.6350    0.3390 o         1 MOL     -0.733708
     14 O4         -2.6980    0.8940    1.2950 o         1 MOL     -0.733708
     15 H4         -0.1930    2.9230    4.8640 hn        1 MOL      0.326109
     16 H5          1.0440    1.8440    2.3990 h1        1 MOL      0.096909
     17 H6         -1.7960    2.8960    3.0310 hc        1 MOL      0.043188
     18 H7         -1.2740    1.3330    3.4890 hc        1 MOL      0.043188
     19 N2          0.9350    3.6650    0.7440 n         1 MOL     -0.471176
     20 C7          1.0740    4.7020   -0.2390 c3        1 MOL      0.037055
     21 C8         -0.2650    5.3190   -0.7660 c         1 MOL      0.409502
     22 O5         -0.2460    6.4850   -1.1520 o         1 MOL     -0.519696
     23 C9          2.0080    4.3020   -1.4720 c3        1 MOL      0.136851
     24 C10         2.5140    5.3580   -2.5700 c3        1 MOL     -0.159427
     25 C11         2.9510    6.5980   -1.8450 c3        1 MOL      0.029582
     26 C12         3.5990    7.6810   -2.6740 c3        1 MOL      0.172816
     27 N3          4.3370    8.6890   -1.8510 n4        1 MOL     -0.436141
     28 H8          0.9300    2.7620    0.3000 hn        1 MOL      0.244040
     29 H9          1.5370    5.4610    0.3860 h1        1 MOL      0.063272
     30 H10         1.5510    3.4440   -1.9600 hc        1 MOL     -0.003004
     31 H11         2.9130    3.9410   -0.9910 hc        1 MOL     -0.003004
     32 H12         1.7170    5.6460   -3.2510 hc        1 MOL      0.062121
     33 H13         3.3220    5.0070   -3.2080 hc        1 MOL      0.062121
     34 H14         3.6880    6.2910   -1.0960 hc        1 MOL      0.008254
     35 H15         2.1250    7.0680   -1.3140 hc        1 MOL      0.008254
     36 H16         2.8420    8.2230   -3.2380 hx        1 MOL      0.038435
     37 H17         4.2580    7.2440   -3.4300 hx        1 MOL      0.038435
     38 H18         4.5690    9.5220   -2.3670 hn        1 MOL      0.340650
     39 H19         3.7560    8.9790   -1.0830 hn        1 MOL      0.340650
     40 H20         5.2180    8.3090   -1.5220 hn        1 MOL      0.340650
     41 N4         -1.3880    4.5270   -0.7910 n         1 MOL     -0.393384
     42 C13        -2.7160    4.9290   -1.1590 c3        1 MOL      0.211663
     43 C14        -3.7850    4.6390   -0.1110 c         1 MOL      0.369009
     44 O6         -4.8470    5.2800   -0.3460 o         1 MOL     -0.539007
     45 C15        -3.0680    4.4120   -2.5580 c3        1 MOL     -0.223584
     46 C16        -2.9620    2.8640   -2.7010 c         1 MOL      0.659188
     47 O7         -2.7080    2.4630   -3.8220 o         1 MOL     -0.630360
     48 O8         -3.0770    2.0770   -1.7150 o         1 MOL     -0.630360
     49 H21        -1.2220    3.5480   -0.5800 hn        1 MOL      0.366330
     50 H22        -2.6670    6.0040   -1.3410 h1        1 MOL      0.062993
     51 H23        -2.3860    4.9660   -3.1940 hc        1 MOL      0.067853
     52 H24        -4.0020    4.8640   -2.9140 hc        1 MOL      0.067853
     53 N5         -3.7030    3.6890    0.8790 n         1 MOL     -0.084334
     54 C17        -4.7620    3.3280    1.8260 c3        1 MOL     -0.179791
     55 C18        -5.7820    2.3820    1.3420 c         1 MOL      0.600406
     56 O9         -6.8290    2.2980    2.0090 o         1 MOL     -0.631695
     57 H25        -2.9520    3.0450    0.7040 hn        1 MOL     -0.213743
     58 H26        -5.2750    4.2160    2.2050 h1        1 MOL      0.121302
     59 H27        -4.2580    2.9470    2.7130 h1        1 MOL      0.121302
     60 N6         -5.7150    1.7890    0.1960 n         1 MOL     -0.261540
     61 C19        -6.7220    0.9340   -0.3770 c3        1 MOL      0.002647
     62 C20        -7.0360   -0.3930    0.3700 c         1 MOL      0.319478
     63 O10        -7.8990   -1.1500   -0.1890 o         1 MOL     -0.506129
     64 C21        -6.4290    0.6580   -1.8880 c3        1 MOL     -0.385138
     65 C22        -5.5420   -0.5500   -1.9660 c         1 MOL      0.595682
     66 N7         -5.9790   -1.4110   -2.8740 n         1 MOL     -0.678192
     67 O11        -4.5120   -0.6720   -1.2690 o         1 MOL     -0.526975
     68 H28        -4.8620    1.9570   -0.3290 hn        1 MOL      0.276403
     69 H29        -7.6040    1.5730   -0.3180 h1        1 MOL      0.131196
     70 H30        -5.8960    1.4960   -2.3280 hc        1 MOL      0.147294
     71 H31        -7.3780    0.3150   -2.3050 hc        1 MOL      0.147294
     72 H32        -6.6810   -1.1570   -3.5570 hn        1 MOL      0.346543
     73 H33        -5.5280   -2.2890   -3.0880 hn        1 MOL      0.346543
     74 N8         -6.4040   -0.7890    1.4700 n         1 MOL     -0.023203
     75 C23        -6.6700   -1.9480    2.2740 c3        1 MOL     -0.248281
     76 C24        -5.6240   -3.0160    2.2790 c         1 MOL      0.566166
     77 O12        -5.7590   -4.1050    2.8440 o         1 MOL     -0.568819
     78 H34        -5.8600   -0.0600    1.9070 hn        1 MOL      0.195892
     79 H35        -7.5780   -2.4470    1.9170 h1        1 MOL      0.123020
     80 H36        -6.7700   -1.6100    3.2960 h1        1 MOL      0.123020
     81 N9         -4.4950   -2.8080    1.5780 n         1 MOL     -0.263693
     82 C25        -3.2970   -3.6790    1.6880 c3        1 MOL     -0.056504
     83 C26        -1.9740   -3.0170    1.2800 c         1 MOL      0.511752
     84 O13        -1.9630   -2.0270    0.5090 o         1 MOL     -0.441060
     85 C27        -3.5570   -5.0220    1.0020 c3        1 MOL     -0.003071
     86 C28        -3.5020   -5.0310   -0.4870 ca        1 MOL      0.081205
     87 C29        -2.3230   -5.2470   -1.1960 ca        1 MOL     -0.162051
     88 C30        -4.6920   -5.0730   -1.2270 ca        1 MOL     -0.162051
     89 C31        -2.2320   -5.4450   -2.6010 ca        1 MOL     -0.302214
     90 C32        -4.6140   -5.3510   -2.6270 ca        1 MOL     -0.302214
     91 C33        -3.4220   -5.5770   -3.3520 ca        1 MOL      0.372665
     92 O14        -3.4280   -5.8960   -4.6510 oh        1 MOL     -0.491758
     93 H37        -4.4260   -1.9660    1.0260 hn        1 MOL      0.166351
     94 H38        -3.1720   -4.0190    2.7170 h1        1 MOL      0.085458
     95 H39        -4.4740   -5.4670    1.3710 hc        1 MOL      0.037881
     96 H40        -2.7390   -5.6750    1.3040 hc        1 MOL      0.037881
     97 H41        -1.4290   -5.1320   -0.6010 ha        1 MOL      0.166021
     98 H42        -5.6700   -4.8820   -0.8110 ha        1 MOL      0.166021
     99 H43        -1.2410   -5.5440   -3.0340 ha        1 MOL      0.141499
    100 H44        -5.5120   -5.3540   -3.2170 ha        1 MOL      0.141499
    101 H45        -2.5590   -6.2420   -4.8310 ho        1 MOL      0.373349
    102 N10        -0.9280   -3.4030    2.0300 n         1 MOL     -0.513673
    103 C34         0.4410   -2.8700    1.8700 c3        1 MOL     -0.203322
    104 C35         1.3910   -3.9310    1.2700 c         1 MOL      0.657945
    105 O15         1.0940   -5.1180    1.2650 o         1 MOL     -0.565230
    106 C36         0.9470   -2.1830    3.1920 c3        1 MOL      0.109690
    107 C37         1.1550   -3.2060    4.4530 c3        1 MOL     -0.258807
    108 C38        -0.0400   -1.0740    3.6130 c3        1 MOL     -0.015353
    109 C39         1.6710   -2.5920    5.7740 c3        1 MOL      0.059990
    110 H46        -1.0520   -4.2790    2.5140 hn        1 MOL      0.342415
    111 H47         0.3850   -1.9970    1.2200 h1        1 MOL      0.109858
    112 H48         1.9140   -1.6990    3.0140 hc        1 MOL      0.043693
    113 H49         1.8860   -3.9760    4.1630 hc        1 MOL      0.091120
    114 H50         0.1560   -3.4800    4.7770 hc        1 MOL      0.091120
    115 H51         0.4850   -0.2290    4.0430 hc        1 MOL      0.015807
    116 H52        -0.5060   -0.6770    2.7070 hc        1 MOL      0.015807
    117 H53        -0.8290   -1.3930    4.2910 hc        1 MOL      0.015807
    118 H54         1.0320   -1.7790    6.0990 hc        1 MOL     -0.007514
    119 H55         1.6650   -3.3580    6.5430 hc        1 MOL     -0.007514
    120 H56         2.6740   -2.1580    5.7180 hc        1 MOL     -0.007514
    121 N11         2.5070   -3.4420    0.7020 n         1 MOL     -0.335801
    122 C40         3.5900   -4.1470    0.0260 c3        1 MOL      0.064425
    123 C41         4.9970   -3.6160    0.4150 c         1 MOL      0.500544
    124 O16         5.0530   -2.5220    0.9750 o         1 MOL     -0.445186
    125 C42         3.3890   -4.1430   -1.4940 c3        1 MOL     -0.106741
    126 O17         3.9900   -3.0910   -2.0990 oh        1 MOL     -0.386567
    127 H57         2.6730   -2.4550    0.8380 hn        1 MOL      0.130976
    128 H58         3.6470   -5.1480    0.4680 h1        1 MOL      0.059812
    129 H59         2.3260   -4.1140   -1.7250 h1        1 MOL      0.071996
    130 H60         3.8060   -5.0480   -1.9540 h1        1 MOL      0.071996
    131 H61         3.8140   -3.0900   -3.0420 ho        1 MOL      0.388521
    132 N12         6.1090   -4.2780    0.0070 n         1 MOL     -0.442097
    133 C43         7.4280   -3.9420    0.2720 c3        1 MOL      0.179949
    134 C44         7.9110   -2.5440   -0.3510 c         1 MOL      0.337717
    135 O18         8.7280   -1.8100    0.2050 o         1 MOL     -0.514552
    136 C45         8.3460   -5.0870   -0.1040 c3        1 MOL     -0.298901
    137 H62         5.9420   -5.1150   -0.5170 hn        1 MOL      0.286606
    138 H63         7.5600   -3.8200    1.3490 h1        1 MOL      0.072877
    139 H64         8.1680   -5.9880    0.4820 hc        1 MOL      0.090288
    140 H65         8.2440   -5.3390   -1.1620 hc        1 MOL      0.090288
    141 H66         9.3750   -4.7710    0.0970 hc        1 MOL      0.090288
    142 N13         7.3850   -2.2040   -1.4560 n         1 MOL     -0.083240
    143 C46         7.6020   -0.9900   -2.2390 c3        1 MOL     -0.065883
    144 C47         6.6640    0.1060   -1.7700 c         1 MOL      0.503959
    145 O19         7.0980    1.2530   -1.6970 o         1 MOL     -0.528842
    146 C48         7.5150   -1.3650   -3.7180 c3        1 MOL     -0.096007
    147 H67         6.6490   -2.7890   -1.8360 hn        1 MOL      0.087829
    148 H68         8.5950   -0.6840   -1.9050 h1        1 MOL      0.121345
    149 H69         6.5160   -1.6140   -4.0890 hc        1 MOL      0.041288
    150 H70         7.8670   -0.5380   -4.3400 hc        1 MOL      0.041288
    151 H71         8.1660   -2.1980   -3.9740 hc        1 MOL      0.041288
    152 N14         5.4290   -0.1740   -1.3430 n         1 MOL     -0.301078
    153 C49         4.6130    0.8240   -0.6480 c3        1 MOL     -0.110865
    154 C50         5.1690    1.2770    0.6890 c         1 MOL      0.443658
    155 O20         5.1030    2.4240    1.0550 o         1 MOL     -0.515528
    156 C51         3.1060    0.3770   -0.6010 c3        1 MOL     -0.265782
    157 C52         2.5350    0.1070   -2.0020 c3        1 MOL      0.154365
    158 C53         1.0300   -0.0550   -1.9480 c         1 MOL      0.543022
    159 O21         0.4990   -1.0630   -1.3720 o         1 MOL     -0.646593
    160 O22         0.2990    0.8420   -2.4410 o         1 MOL     -0.646593
    161 H72         5.2080   -1.1520   -1.2360 hn        1 MOL      0.144142
    162 H73         4.6740    1.7180   -1.2800 h1        1 MOL      0.129508
    163 H74         2.5540    1.1380   -0.0460 hc        1 MOL      0.116813
    164 H75         2.9890   -0.5510   -0.0380 hc        1 MOL      0.116813
    165 H76         3.0020   -0.7510   -2.4840 hc        1 MOL     -0.039446
    166 H77         2.6350    0.9230   -2.7070 hc        1 MOL     -0.039446
    167 N15         5.8500    0.3750    1.3720 n         1 MOL     -0.071266
    168 C54         6.5310    0.5720    2.6440 c3        1 MOL     -0.157491
    169 H78         5.8780    0.2540    3.4580 h1        1 MOL      0.077403
    170 H79         7.4470   -0.0190    2.6620 h1        1 MOL      0.077403
    171 H80         6.7750    1.6270    2.7660 h1        1 MOL      0.077403
    172 H81         5.7810   -0.5720    1.0360 hn        1 MOL      0.128685
    173 Ca1        -1.8970   -0.1380   -1.1700 Ca        1 MOL      1.591630
    174 O23        -2.0270   -0.0960   -3.8380 oh        1 MOL     -0.777733
    175 H82        -2.2530    0.8140   -3.9950 ho        1 MOL      0.360250
    176 H83        -2.3100   -0.5560   -4.6310 ho        1 MOL      0.360250
    177 O24        -2.5210   -2.4840   -2.4460 oh        1 MOL     -0.777733
    178 H84        -3.2320   -2.9520   -2.8890 ho        1 MOL      0.360250
    179 H85        -1.7550   -3.0340   -2.5800 ho        1 MOL      0.360250
@<TRIPOS>BOND
     1    1    2 1   
     2    1    4 1   
     3    1    5 1   
     4    1    6 1   
     5    2    3 2   
     6    2    7 1   
     7    7    8 1   
     8    7   15 1   
     9    8    9 1   
    10    8   11 1   
    11    8   16 1   
    12    9   10 2   
    13    9   19 1   
    14   11   12 1   
    15   11   17 1   
    16   11   18 1   
    17   12   13 1   
    18   12   14 1   
    19   19   20 1   
    20   19   28 1   
    21   20   21 1   
    22   20   23 1   
    23   20   29 1   
    24   21   22 2   
    25   21   41 1   
    26   23   24 1   
    27   23   30 1   
    28   23   31 1   
    29   24   25 1   
    30   24   32 1   
    31   24   33 1   
    32   25   26 1   
    33   25   34 1   
    34   25   35 1   
    35   26   27 1   
    36   26   36 1   
    37   26   37 1   
    38   27   38 1   
    39   27   39 1   
    40   27   40 1   
    41   41   42 1   
    42   41   49 1   
    43   42   43 1   
    44   42   45 1   
    45   42   50 1   
    46   43   44 2   
    47   43   53 1   
    48   45   46 1   
    49   45   51 1   
    50   45   52 1   
    51   46   47 1   
    52   46   48 1   
    53   53   54 1   
    54   53   57 1   
    55   54   55 1   
    56   54   58 1   
    57   54   59 1   
    58   55   56 2   
    59   55   60 1   
    60   60   61 1   
    61   60   68 1   
    62   61   62 1   
    63   61   64 1   
    64   61   69 1   
    65   62   63 2   
    66   62   74 1   
    67   64   65 1   
    68   64   70 1   
    69   64   71 1   
    70   65   66 1   
    71   65   67 2   
    72   66   72 1   
    73   66   73 1   
    74   74   75 1   
    75   74   78 1   
    76   75   76 1   
    77   75   79 1   
    78   75   80 1   
    79   76   77 2   
    80   76   81 1   
    81   81   82 1   
    82   81   93 1   
    83   82   83 1   
    84   82   85 1   
    85   82   94 1   
    86   83   84 2   
    87   83  102 1   
    88   85   86 1   
    89   85   95 1   
    90   85   96 1   
    91   86   87 ar  
    92   86   88 ar  
    93   87   89 ar  
    94   87   97 1   
    95   88   90 ar  
    96   88   98 1   
    97   89   91 ar  
    98   89   99 1   
    99   90   91 ar  
   100   90  100 1   
   101   91   92 1   
   102   92  101 1   
   103  102  103 1   
   104  102  110 1   
   105  103  104 1   
   106  103  106 1   
   107  103  111 1   
   108  104  105 2   
   109  104  121 1   
   110  106  107 1   
   111  106  108 1   
   112  106  112 1   
   113  107  109 1   
   114  107  113 1   
   115  107  114 1   
   116  108  115 1   
   117  108  116 1   
   118  108  117 1   
   119  109  118 1   
   120  109  119 1   
   121  109  120 1   
   122  121  122 1   
   123  121  127 1   
   124  122  123 1   
   125  122  125 1   
   126  122  128 1   
   127  123  124 2   
   128  123  132 1   
   129  125  126 1   
   130  125  129 1   
   131  125  130 1   
   132  126  131 1   
   133  132  133 1   
   134  132  137 1   
   135  133  134 1   
   136  133  136 1   
   137  133  138 1   
   138  134  135 2   
   139  134  142 1   
   140  136  139 1   
   141  136  140 1   
   142  136  141 1   
   143  142  143 1   
   144  142  147 1   
   145  143  144 1   
   146  143  146 1   
   147  143  148 1   
   148  144  145 2   
   149  144  152 1   
   150  146  149 1   
   151  146  150 1   
   152  146  151 1   
   153  152  153 1   
   154  152  161 1   
   155  153  154 1   
   156  153  156 1   
   157  153  162 1   
   158  154  155 2   
   159  154  167 1   
   160  156  157 1   
   161  156  163 1   
   162  156  164 1   
   163  157  158 1   
   164  157  165 1   
   165  157  166 1   
   166  158  159 1   
   167  158  160 1   
   168  167  168 1   
   169  167  172 1   
   170  168  169 1   
   171  168  170 1   
   172  168  171 1   
   173  174  175 1   
   174  174  176 1   
   175  177  178 1   
   176  177  179 1   
@<TRIPOS>SUBSTRUCTURE
     1 MOL         1 TEMP              0 ****  ****    0 ROOT
