@<TRIPOS>MOLECULE
MOL
  186   183     1     0     0
SMALL
resp


@<TRIPOS>ATOM
      1 C1          0.8610   -1.4940    6.3430 c3        1 MOL     -0.356825
      2 C2          1.1060   -1.4300    4.8180 c         1 MOL      0.811076
      3 O1          0.1230   -1.5560    4.1610 o         1 MOL     -0.564700
      4 H1          1.3750   -0.6640    6.8280 hc        1 MOL      0.077204
      5 H2         -0.2080   -1.4250    6.5440 hc        1 MOL      0.077204
      6 H3          1.2450   -2.4360    6.7350 hc        1 MOL      0.077204
      7 N1          2.3480   -1.2530    4.3830 n         1 MOL     -0.761655
      8 C3          2.7960   -1.4420    2.9720 c3        1 MOL      0.441870
      9 C4          3.0840   -2.9370    2.6760 c         1 MOL      0.399870
     10 O2          3.8580   -3.6480    3.4060 o         1 MOL     -0.556245
     11 C5          4.0930   -0.5860    2.7730 c3        1 MOL     -0.357247
     12 C6          4.6850   -0.5110    1.4220 c         1 MOL      0.797990
     13 O3          5.8810   -0.1280    1.3940 o         1 MOL     -0.654305
     14 O4          3.9880   -0.8650    0.4620 o         1 MOL     -0.654305
     15 H4          3.0470   -0.8420    4.9840 hn        1 MOL      0.341996
     16 H5          2.0480   -0.9960    2.3300 h1        1 MOL     -0.042165
     17 H6          4.7970   -0.9820    3.5090 hc        1 MOL      0.055813
     18 H7          3.8270    0.4610    2.8980 hc        1 MOL      0.055813
     19 N2          2.4210   -3.4640    1.6640 n         1 MOL     -0.181170
     20 C7          2.3630   -4.9100    1.3900 c3        1 MOL     -0.294090
     21 C8          3.4290   -5.2310    0.3720 c         1 MOL      0.627840
     22 O5          4.0280   -6.2920    0.3760 o         1 MOL     -0.598497
     23 C9          0.9030   -5.2740    0.9270 c3        1 MOL      0.261652
     24 C10        -0.0160   -5.1410    2.1640 c3        1 MOL      0.130821
     25 C11         0.7530   -6.5840    0.3200 c3        1 MOL     -0.285644
     26 C12        -1.5640   -5.2780    1.9220 c3        1 MOL     -0.294709
     27 H8          1.8560   -2.8420    1.1050 hn        1 MOL      0.110707
     28 H9          2.5700   -5.4590    2.3120 h1        1 MOL      0.108718
     29 H10         0.5610   -4.5660    0.1680 hc        1 MOL      0.009347
     30 H11         0.0860   -4.1620    2.6350 hc        1 MOL     -0.019176
     31 H12         0.1480   -5.9640    2.8620 hc        1 MOL     -0.019176
     32 H13         0.9160   -7.3670    1.0540 hc        1 MOL      0.058584
     33 H14        -0.2610   -6.7250   -0.0460 hc        1 MOL      0.058584
     34 H15         1.3910   -6.6650   -0.5640 hc        1 MOL      0.058584
     35 H16        -1.7930   -6.2370    2.3710 hc        1 MOL      0.068286
     36 H17        -2.0040   -4.4340    2.4560 hc        1 MOL      0.068286
     37 H18        -1.9110   -5.2230    0.8930 hc        1 MOL      0.068286
     38 N3          3.6120   -4.3700   -0.6100 n         1 MOL     -0.321920
     39 C13         4.5880   -4.5260   -1.7220 c3        1 MOL      0.067729
     40 C14         5.9860   -3.9710   -1.3940 c         1 MOL      0.452289
     41 O6          6.9740   -4.5250   -1.9020 o         1 MOL     -0.562564
     42 C15         3.9550   -4.0960   -3.0910 c3        1 MOL     -0.314516
     43 C16         3.1640   -2.8350   -3.0280 c         1 MOL      0.791401
     44 O7          2.4270   -2.5660   -4.0320 o         1 MOL     -0.705843
     45 O8          3.3170   -2.0450   -2.0900 o         1 MOL     -0.705843
     46 H19         3.0950   -3.5030   -0.5210 hn        1 MOL      0.200053
     47 H20         4.7260   -5.6050   -1.7370 h1        1 MOL      0.074503
     48 H21         3.3420   -4.9170   -3.4660 hc        1 MOL      0.088588
     49 H22         4.7710   -4.0580   -3.8050 hc        1 MOL      0.088588
     50 N4          6.0880   -2.9380   -0.5140 n         1 MOL     -0.226967
     51 C17         7.3720   -2.3520   -0.1040 c3        1 MOL     -0.046650
     52 C18         7.8230   -1.0610   -0.9060 c         1 MOL      0.531102
     53 O9          9.0340   -0.8860   -1.1210 o         1 MOL     -0.621126
     54 H23         5.2120   -2.6380   -0.1310 hn        1 MOL      0.169308
     55 H24         8.1900   -3.0560   -0.0220 h1        1 MOL      0.061393
     56 H25         7.1990   -1.9680    0.8990 h1        1 MOL      0.061393
     57 N5          6.9450   -0.2120   -1.3200 n         1 MOL     -0.206425
     58 C19         7.2820    1.0910   -1.8750 c3        1 MOL      0.028386
     59 C20         7.4260    2.3160   -0.9730 c         1 MOL      0.381629
     60 O10         7.7860    3.4490   -1.3850 o         1 MOL     -0.561312
     61 C21         6.2140    1.3010   -3.0000 c3        1 MOL     -0.254713
     62 C22         4.7730    1.3720   -2.5160 c         1 MOL      0.837860
     63 O11         4.5130    1.6910   -1.3400 o         1 MOL     -0.747089
     64 O12         3.8780    0.9440   -3.3210 o         1 MOL     -0.747089
     65 H26         5.9900   -0.3480   -1.0090 hn        1 MOL      0.107084
     66 H27         8.2820    1.0360   -2.2960 h1        1 MOL      0.097222
     67 H28         6.3430    0.5120   -3.7400 hc        1 MOL      0.060068
     68 H29         6.3750    2.2330   -3.5400 hc        1 MOL      0.060068
     69 N6          7.0750    2.1930    0.3110 n         1 MOL     -0.107470
     70 C23         7.0790    3.2440    1.3360 c3        1 MOL     -0.272206
     71 C24         5.7750    4.0410    1.5180 c         1 MOL      0.616571
     72 O13         5.8270    5.1040    2.1360 o         1 MOL     -0.610355
     73 H30         6.8530    1.2860    0.7040 hn        1 MOL      0.185826
     74 H31         7.8100    3.9690    0.9690 h1        1 MOL      0.106534
     75 H32         7.3090    2.9440    2.3610 h1        1 MOL      0.106534
     76 N7          4.6750    3.5890    0.9050 n         1 MOL     -0.364292
     77 C25         3.3080    4.2730    0.9570 c3        1 MOL     -0.236705
     78 C26         2.2130    3.2590    1.0950 c         1 MOL      0.748874
     79 O14         2.2830    2.1960    0.4520 o         1 MOL     -0.676926
     80 C27         3.1300    5.1900   -0.3410 c3        1 MOL      0.059032
     81 C28         3.9610    6.4290   -0.3340 c3        1 MOL     -0.284511
     82 C29         3.7520    7.3590   -1.4930 c         1 MOL      0.634558
     83 N8          4.4720    7.0100   -2.5270 n         1 MOL     -0.779345
     84 O15         2.9390    8.2730   -1.5770 o         1 MOL     -0.575971
     85 H33         4.8500    2.7760    0.3190 hn        1 MOL      0.298294
     86 H34         3.3310    4.9310    1.8290 h1        1 MOL      0.127943
     87 H35         2.1220    5.5940   -0.4410 hc        1 MOL      0.066687
     88 H36         3.2310    4.5690   -1.2360 hc        1 MOL      0.066687
     89 H37         4.9850    6.0640   -0.3790 hc        1 MOL      0.102547
     90 H38         3.8910    6.9490    0.6210 hc        1 MOL      0.102547
     91 H39         4.9390    6.1070   -2.5970 hn        1 MOL      0.357311
     92 H40         4.4420    7.6250   -3.3200 hn        1 MOL      0.357311
     93 N9          1.1320    3.5980    1.8440 n         1 MOL     -0.636728
     94 C30        -0.1320    2.7460    1.8780 c3        1 MOL      0.326196
     95 C31        -1.1980    3.4100    0.9750 c         1 MOL      0.322001
     96 O16        -1.5080    4.5950    1.0500 o         1 MOL     -0.571543
     97 C32        -0.7090    2.5570    3.3130 c3        1 MOL      0.169915
     98 C33        -1.7010    1.3820    3.3110 c3        1 MOL     -0.257259
     99 C34         0.3310    2.3000    4.3390 c3        1 MOL     -0.257259
    100 H41         1.1830    4.5110    2.2900 hn        1 MOL      0.303414
    101 H42         0.1960    1.7970    1.4540 h1        1 MOL      0.096929
    102 H43        -1.2200    3.4870    3.5340 hc        1 MOL     -0.006507
    103 H44        -1.2960    0.5810    2.6860 hc        1 MOL      0.050289
    104 H45        -1.9320    0.9380    4.2840 hc        1 MOL      0.050289
    105 H46        -2.6850    1.6210    2.8880 hc        1 MOL      0.050289
    106 H47         1.0280    1.4730    4.2080 hc        1 MOL      0.050289
    107 H48         0.9930    3.1630    4.4040 hc        1 MOL      0.050289
    108 H49        -0.1190    2.2550    5.3220 hc        1 MOL      0.050289
    109 N10        -1.9300    2.6140    0.1900 n         1 MOL      0.043192
    110 C35        -3.0200    2.9200   -0.7550 c3        1 MOL      0.092477
    111 C36        -4.2980    2.2470   -0.1850 c         1 MOL      0.259643
    112 O17        -4.2230    1.4680    0.8000 o         1 MOL     -0.267234
    113 C37        -2.5900    2.4090   -2.1850 c3        1 MOL     -0.384078
    114 C38        -3.1240    1.0790   -2.5320 c         1 MOL      0.719081
    115 N11        -2.5220   -0.0170   -2.2040 n         1 MOL     -0.815914
    116 O18        -4.2300    1.0560   -3.0090 o         1 MOL     -0.620086
    117 H50        -1.5990    1.6780    0.3360 hn        1 MOL     -0.159691
    118 H51        -3.0280    4.0130   -0.7480 h1        1 MOL      0.078875
    119 H52        -1.5010    2.4130   -2.2930 hc        1 MOL      0.129018
    120 H53        -3.0100    3.0350   -2.9680 hc        1 MOL      0.129018
    121 H54        -1.6400    0.0620   -1.7070 hn        1 MOL      0.400743
    122 H55        -2.8440   -0.8660   -2.6490 hn        1 MOL      0.400743
    123 N12        -5.4480    2.5260   -0.8720 n         1 MOL     -0.469880
    124 C39        -6.6900    1.9930   -0.3430 c3        1 MOL      0.169251
    125 C40        -6.7760    0.4120   -0.2590 c         1 MOL      0.754524
    126 O19        -7.2940   -0.1750    0.7380 o         1 MOL     -0.560161
    127 C41        -7.8490    2.5120   -1.1230 c3        1 MOL     -0.037408
    128 C42        -9.2330    2.2860   -0.4680 ca        1 MOL     -0.053580
    129 C43        -9.4660    2.8600    0.7920 ca        1 MOL     -0.170310
    130 C44       -10.1070    1.3150   -1.0110 ca        1 MOL     -0.170310
    131 C45       -10.6900    2.6770    1.4460 ca        1 MOL     -0.200391
    132 C46       -11.3290    1.1020   -0.3770 ca        1 MOL     -0.200391
    133 C47       -11.6380    1.8960    0.7990 ca        1 MOL      0.282397
    134 O20       -12.8600    1.6360    1.2970 oh        1 MOL     -0.509017
    135 H56        -5.4070    3.0750   -1.7140 hn        1 MOL      0.307100
    136 H57        -6.8600    2.3660    0.6670 h1        1 MOL      0.027222
    137 H58        -7.7440    1.9890   -2.0700 hc        1 MOL      0.025172
    138 H59        -7.6960    3.5690   -1.3290 hc        1 MOL      0.025172
    139 H60        -8.7170    3.4720    1.2680 ha        1 MOL      0.145659
    140 H61        -9.9050    0.8030   -1.9420 ha        1 MOL      0.145659
    141 H62       -10.8980    3.0160    2.4460 ha        1 MOL      0.138933
    142 H63       -12.0340    0.4000   -0.8090 ha        1 MOL      0.138933
    143 H64       -13.3550    1.0530    0.7070 ho        1 MOL      0.365571
    144 N13        -6.2920   -0.3350   -1.2800 n         1 MOL     -0.602066
    145 C48        -6.2990   -1.8100   -1.2920 c3        1 MOL      0.055992
    146 C49        -5.5020   -2.4230   -0.1760 c         1 MOL      0.292148
    147 O21        -5.8970   -3.5290    0.2260 o         1 MOL     -0.517738
    148 C50        -5.8070   -2.3290   -2.6560 c3        1 MOL      0.094532
    149 C51        -6.9210   -2.2460   -3.6510 c3        1 MOL     -0.306303
    150 C52        -6.6010   -2.9030   -5.0050 c         1 MOL      0.736682
    151 O22        -6.8850   -4.1000   -5.1390 o         1 MOL     -0.748111
    152 O23        -6.1180   -2.3040   -5.9960 o         1 MOL     -0.748111
    153 H65        -5.7390    0.1860   -1.9340 hn        1 MOL      0.377671
    154 H66        -7.3550   -2.0620   -1.2190 h1        1 MOL      0.103443
    155 H67        -5.4450   -3.3420   -2.5070 hc        1 MOL      0.025389
    156 H68        -4.9270   -1.7590   -2.9650 hc        1 MOL      0.025389
    157 H69        -7.2110   -1.2110   -3.7960 hc        1 MOL      0.036312
    158 H70        -7.7250   -2.8510   -3.2160 hc        1 MOL      0.036312
    159 N14        -4.4550   -1.7830    0.2830 n         1 MOL      0.092077
    160 C53        -3.6650   -2.1300    1.4360 c3        1 MOL     -0.048707
    161 C54        -4.3780   -1.6590    2.8060 c         1 MOL      0.349908
    162 O24        -4.2880   -2.2450    3.9040 o         1 MOL     -0.556538
    163 C55        -2.2860   -1.4610    1.2900 c3        1 MOL      0.146725
    164 C56        -1.4190   -1.9840    0.1450 c3        1 MOL      0.066953
    165 C57        -0.2180   -1.0650   -0.1420 c         1 MOL      0.487731
    166 O25         0.8810   -1.5640    0.0130 o         1 MOL     -0.581932
    167 O26        -0.3180    0.1720   -0.5080 o         1 MOL     -0.581932
    168 H71        -4.2350   -0.8790   -0.1000 hn        1 MOL     -0.146373
    169 H72        -3.5070   -3.2130    1.3820 h1        1 MOL      0.048707
    170 H73        -1.7000   -1.5200    2.2000 hc        1 MOL      0.047130
    171 H74        -2.3900   -0.3940    1.1020 hc        1 MOL      0.047130
    172 H75        -2.0710   -2.0450   -0.7370 hc        1 MOL     -0.041803
    173 H76        -1.0460   -2.9660    0.4250 hc        1 MOL     -0.041803
    174 N15        -5.0830   -0.5430    2.7200 n         1 MOL      0.098526
    175 C58        -5.7170    0.1460    3.8480 c3        1 MOL     -0.178186
    176 H77        -5.0410    0.9110    4.2320 h1        1 MOL      0.067342
    177 H78        -6.6430    0.6140    3.5150 h1        1 MOL      0.067342
    178 H79        -5.9350   -0.5720    4.6380 h1        1 MOL      0.067342
    179 H80        -5.1100   -0.0870    1.8190 hn        1 MOL     -0.070142
    180 Ca1         2.3520    0.1400   -1.1310 Ca        1 MOL      1.693205
    181 O27         1.4970    2.2420   -2.5280 oh        1 MOL     -0.847812
    182 H81         0.7740    2.0840   -3.1450 ho        1 MOL      0.389662
    183 H82         2.2110    2.5580   -3.0840 ho        1 MOL      0.389662
    184 O28         0.7470   -0.7930   -3.0930 oh        1 MOL     -0.847812
    185 H83         0.1460   -0.5430   -3.7890 ho        1 MOL      0.389662
    186 H84         1.2900   -1.4770   -3.4820 ho        1 MOL      0.389662
@<TRIPOS>BOND
     1    1    2 1   
     2    1    4 1   
     3    1    5 1   
     4    1    6 1   
     5    2    3 2   
     6    2    7 1   
     7    7    8 1   
     8    7   15 1   
     9    8    9 1   
    10    8   11 1   
    11    8   16 1   
    12    9   10 2   
    13    9   19 1   
    14   11   12 1   
    15   11   17 1   
    16   11   18 1   
    17   12   13 1   
    18   12   14 1   
    19   19   20 1   
    20   19   27 1   
    21   20   21 1   
    22   20   23 1   
    23   20   28 1   
    24   21   22 2   
    25   21   38 1   
    26   23   24 1   
    27   23   25 1   
    28   23   29 1   
    29   24   26 1   
    30   24   30 1   
    31   24   31 1   
    32   25   32 1   
    33   25   33 1   
    34   25   34 1   
    35   26   35 1   
    36   26   36 1   
    37   26   37 1   
    38   38   39 1   
    39   38   46 1   
    40   39   40 1   
    41   39   42 1   
    42   39   47 1   
    43   40   41 2   
    44   40   50 1   
    45   42   43 1   
    46   42   48 1   
    47   42   49 1   
    48   43   44 1   
    49   43   45 1   
    50   50   51 1   
    51   50   54 1   
    52   51   52 1   
    53   51   55 1   
    54   51   56 1   
    55   52   53 2   
    56   52   57 1   
    57   57   58 1   
    58   57   65 1   
    59   58   59 1   
    60   58   61 1   
    61   58   66 1   
    62   59   60 2   
    63   59   69 1   
    64   61   62 1   
    65   61   67 1   
    66   61   68 1   
    67   62   63 1   
    68   62   64 1   
    69   69   70 1   
    70   69   73 1   
    71   70   71 1   
    72   70   74 1   
    73   70   75 1   
    74   71   72 2   
    75   71   76 1   
    76   76   77 1   
    77   76   85 1   
    78   77   78 1   
    79   77   80 1   
    80   77   86 1   
    81   78   79 2   
    82   78   93 1   
    83   80   81 1   
    84   80   87 1   
    85   80   88 1   
    86   81   82 1   
    87   81   89 1   
    88   81   90 1   
    89   82   83 1   
    90   82   84 2   
    91   83   91 1   
    92   83   92 1   
    93   93   94 1   
    94   93  100 1   
    95   94   95 1   
    96   94   97 1   
    97   94  101 1   
    98   95   96 2   
    99   95  109 1   
   100   97   98 1   
   101   97   99 1   
   102   97  102 1   
   103   98  103 1   
   104   98  104 1   
   105   98  105 1   
   106   99  106 1   
   107   99  107 1   
   108   99  108 1   
   109  109  110 1   
   110  109  117 1   
   111  110  111 1   
   112  110  113 1   
   113  110  118 1   
   114  111  112 2   
   115  111  123 1   
   116  113  114 1   
   117  113  119 1   
   118  113  120 1   
   119  114  115 1   
   120  114  116 2   
   121  115  121 1   
   122  115  122 1   
   123  123  124 1   
   124  123  135 1   
   125  124  125 1   
   126  124  127 1   
   127  124  136 1   
   128  125  126 2   
   129  125  144 1   
   130  127  128 1   
   131  127  137 1   
   132  127  138 1   
   133  128  129 ar  
   134  128  130 ar  
   135  129  131 ar  
   136  129  139 1   
   137  130  132 ar  
   138  130  140 1   
   139  131  133 ar  
   140  131  141 1   
   141  132  133 ar  
   142  132  142 1   
   143  133  134 1   
   144  134  143 1   
   145  144  145 1   
   146  144  153 1   
   147  145  146 1   
   148  145  148 1   
   149  145  154 1   
   150  146  147 2   
   151  146  159 1   
   152  148  149 1   
   153  148  155 1   
   154  148  156 1   
   155  149  150 1   
   156  149  157 1   
   157  149  158 1   
   158  150  151 1   
   159  150  152 1   
   160  159  160 1   
   161  159  168 1   
   162  160  161 1   
   163  160  163 1   
   164  160  169 1   
   165  161  162 2   
   166  161  174 1   
   167  163  164 1   
   168  163  170 1   
   169  163  171 1   
   170  164  165 1   
   171  164  172 1   
   172  164  173 1   
   173  165  166 1   
   174  165  167 1   
   175  174  175 1   
   176  174  179 1   
   177  175  176 1   
   178  175  177 1   
   179  175  178 1   
   180  181  182 1   
   181  181  183 1   
   182  184  185 1   
   183  184  186 1   
@<TRIPOS>SUBSTRUCTURE
     1 MOL         1 TEMP              0 ****  ****    0 ROOT
