@<TRIPOS>MOLECULE
MOL
  189   185     1     0     0
SMALL
resp


@<TRIPOS>ATOM
      1 C1          0.7130    0.3960    6.0810 c3        1 MOL     -0.293257
      2 C2          0.0380    0.7900    4.8090 c         1 MOL      0.704050
      3 O1          0.6660    1.4710    4.0290 o         1 MOL     -0.575110
      4 H1          1.6470   -0.1170    5.8530 hc        1 MOL      0.075268
      5 H2          0.9240    1.2870    6.6720 hc        1 MOL      0.075268
      6 H3          0.0620   -0.2690    6.6480 hc        1 MOL      0.075268
      7 N1         -1.2580    0.5410    4.6440 n         1 MOL     -0.562676
      8 C3         -1.9760    0.6960    3.3350 c3        1 MOL      0.108765
      9 C4         -2.3500    2.1400    3.1510 c         1 MOL      0.554594
     10 O2         -3.3530    2.5190    3.7540 o         1 MOL     -0.566215
     11 C5         -3.1080   -0.3500    3.2450 c3        1 MOL     -0.234340
     12 C6         -3.8210   -0.2530    1.8400 c         1 MOL      0.726853
     13 O3         -3.1540    0.2020    0.8890 o         1 MOL     -0.677151
     14 O4         -5.0350   -0.4960    1.7050 o         1 MOL     -0.677151
     15 H4         -1.8450    0.1110    5.3430 hn        1 MOL      0.324313
     16 H5         -1.2320    0.4650    2.5830 h1        1 MOL     -0.015566
     17 H6         -3.9350   -0.2230    3.9500 hc        1 MOL      0.061030
     18 H7         -2.7180   -1.3530    3.4180 hc        1 MOL      0.061030
     19 N2         -1.6680    2.8960    2.2980 n         1 MOL     -0.283196
     20 C7         -1.7190    4.4010    2.2580 c3        1 MOL     -0.058745
     21 C8         -2.9600    4.8640    1.4230 c         1 MOL      0.499395
     22 O5         -3.2250    6.0240    1.5860 o         1 MOL     -0.557653
     23 C9         -0.4610    5.0480    1.6040 c3        1 MOL     -0.083856
     24 C10        -0.3920    4.8410    0.1140 c3        1 MOL      0.106297
     25 C11         0.7680    5.6770   -0.4170 c3        1 MOL     -0.060270
     26 C12         1.1160    5.3030   -1.8950 c3        1 MOL      0.056240
     27 N3         -0.0600    5.3270   -2.7830 n4        1 MOL     -0.307251
     28 H8         -1.0020    2.3950    1.7200 hn        1 MOL      0.191212
     29 H9         -1.7920    4.8080    3.2670 h1        1 MOL      0.123524
     30 H10         0.3950    4.6800    2.1630 hc        1 MOL      0.062599
     31 H11        -0.4420    6.1110    1.8780 hc        1 MOL      0.062599
     32 H12        -1.2660    5.1780   -0.4440 hc        1 MOL     -0.016300
     33 H13        -0.2880    3.7910   -0.1670 hc        1 MOL     -0.016300
     34 H14         1.6570    5.5770    0.1970 hc        1 MOL      0.034816
     35 H15         0.4940    6.7280   -0.4240 hc        1 MOL      0.034816
     36 H16         1.5840    4.3200   -1.9820 hx        1 MOL      0.019275
     37 H17         1.7950    6.0460   -2.2970 hx        1 MOL      0.019275
     38 H18        -0.6680    4.5340   -2.6170 hn        1 MOL      0.293112
     39 H19        -0.6510    6.1230   -2.5930 hn        1 MOL      0.293112
     40 H20         0.1490    5.4360   -3.7680 hn        1 MOL      0.293112
     41 N4         -3.5670    4.0230    0.6040 n         1 MOL     -0.432115
     42 C13        -4.6090    4.3490   -0.3570 c3        1 MOL      0.259508
     43 C14        -5.8740    3.4830   -0.3010 c         1 MOL      0.305659
     44 O6         -6.8590    3.8180   -0.9720 o         1 MOL     -0.504051
     45 C15        -4.0170    4.1990   -1.7750 c3        1 MOL     -0.411027
     46 C16        -2.9560    3.2050   -1.9420 c         1 MOL      1.067324
     47 O7         -1.9810    3.4950   -2.6660 o         1 MOL     -0.803203
     48 O8         -3.0170    2.0870   -1.4460 o         1 MOL     -0.803203
     49 H21        -3.2430    3.0650    0.5500 hn        1 MOL      0.257398
     50 H22        -4.9510    5.3790   -0.2140 h1        1 MOL      0.074902
     51 H23        -3.5860    5.1380   -2.1310 hc        1 MOL      0.072314
     52 H24        -4.8730    3.9850   -2.4260 hc        1 MOL      0.072314
     53 N5         -5.8950    2.5380    0.6080 n         1 MOL     -0.159214
     54 C17        -7.1120    1.7700    0.9690 c3        1 MOL     -0.191844
     55 C18        -7.5470    0.6620   -0.0050 c         1 MOL      0.514296
     56 O9         -8.7150    0.4360   -0.2220 o         1 MOL     -0.561192
     57 H25        -5.0290    2.4890    1.1310 hn        1 MOL      0.195019
     58 H26        -7.9260    2.4800    1.1250 h1        1 MOL      0.118027
     59 H27        -6.9690    1.2630    1.9280 h1        1 MOL      0.118027
     60 N6         -6.5960    0.1280   -0.7860 n         1 MOL     -0.215138
     61 C19        -6.8380   -0.8600   -1.8670 c3        1 MOL     -0.027559
     62 C20        -6.9740   -2.2950   -1.3240 c         1 MOL      0.459023
     63 O10        -7.5150   -3.1620   -2.0270 o         1 MOL     -0.524877
     64 C21        -5.8120   -0.7040   -2.9260 c3        1 MOL     -0.096755
     65 C22        -4.3650   -0.7730   -2.5960 c         1 MOL      0.682492
     66 O11        -3.5040   -0.1300   -3.2830 o         1 MOL     -0.730692
     67 O12        -4.0150   -1.4480   -1.6350 o         1 MOL     -0.730692
     68 H28        -5.6650    0.3970   -0.4940 hn        1 MOL      0.214086
     69 H29        -7.7810   -0.6890   -2.3840 h1        1 MOL      0.110974
     70 H30        -6.0250    0.2590   -3.3740 hc        1 MOL      0.038829
     71 H31        -6.0560   -1.4540   -3.6780 hc        1 MOL      0.038829
     72 N7         -6.5340   -2.4700   -0.0470 n         1 MOL     -0.306907
     73 C23        -6.4960   -3.7770    0.5590 c3        1 MOL      0.031388
     74 C24        -5.3070   -4.6540    0.1400 c         1 MOL      0.434743
     75 O13        -5.4650   -5.8840    0.0690 o         1 MOL     -0.537759
     76 H32        -6.1180   -1.6960    0.4480 hn        1 MOL      0.230385
     77 H33        -7.4220   -4.3620    0.5440 h1        1 MOL      0.047423
     78 H34        -6.3450   -3.6680    1.6330 h1        1 MOL      0.047423
     79 N8         -4.1980   -4.0100   -0.2010 n         1 MOL     -0.215280
     80 C25        -2.9160   -4.6140   -0.5530 c3        1 MOL     -0.159875
     81 C26        -1.7270   -3.7810   -0.0830 c         1 MOL      0.611650
     82 O14        -1.8420   -2.5820   -0.1340 o         1 MOL     -0.735074
     83 C27        -2.6770   -4.8260   -2.0590 c3        1 MOL      0.516067
     84 C28        -3.3680   -6.0760   -2.5820 c3        1 MOL     -0.473246
     85 O15        -3.0970   -3.7930   -2.9100 oh        1 MOL     -0.598663
     86 H35        -4.1410   -3.0040   -0.2010 hn        1 MOL      0.248755
     87 H36        -2.7720   -5.5620   -0.0290 h1        1 MOL      0.079318
     88 H37        -1.6460   -5.1110   -2.2650 h1        1 MOL     -0.030250
     89 H38        -3.4390   -3.1720   -2.2530 ho        1 MOL      0.409658
     90 H39        -2.9990   -6.2510   -3.5860 hc        1 MOL      0.115254
     91 H40        -3.1930   -6.9590   -1.9610 hc        1 MOL      0.115254
     92 H41        -4.4480   -5.9010   -2.5870 hc        1 MOL      0.115254
     93 N9         -0.6000   -4.3540    0.2230 n         1 MOL     -0.538851
     94 C29         0.5840   -3.6020    0.6890 c3        1 MOL      0.087392
     95 C30         1.8730   -3.7910   -0.1210 c         1 MOL      0.421286
     96 O16         2.3670   -4.9530   -0.2880 o         1 MOL     -0.523461
     97 C31         0.7620   -3.7720    2.2190 c3        1 MOL     -0.009807
     98 C32        -0.3730   -3.1970    3.1160 c3        1 MOL      0.180513
     99 C33         2.1330   -3.3140    2.8030 c3        1 MOL     -0.147809
    100 C34        -0.4670   -3.7430    4.5140 c3        1 MOL     -0.175084
    101 H42        -0.5590   -5.3620    0.2070 hn        1 MOL      0.315630
    102 H43         0.4320   -2.5210    0.7120 h1        1 MOL      0.072052
    103 H44         0.7140   -4.8330    2.4770 hc        1 MOL      0.029284
    104 H45        -1.3380   -3.4540    2.6750 hc        1 MOL     -0.006383
    105 H46        -0.2850   -2.1130    3.1790 hc        1 MOL     -0.006383
    106 H47         3.0170   -3.8630    2.4750 hc        1 MOL      0.024114
    107 H48         2.3920   -2.2760    2.6200 hc        1 MOL      0.024114
    108 H49         2.0890   -3.4350    3.8870 hc        1 MOL      0.024114
    109 H50        -1.2550   -3.2250    5.0660 hc        1 MOL      0.032151
    110 H51        -0.6650   -4.8120    4.5470 hc        1 MOL      0.032151
    111 H52         0.4700   -3.5990    5.0490 hc        1 MOL      0.032151
    112 N10         2.3230   -2.7130   -0.7720 n         1 MOL     -0.104061
    113 C35         3.5630   -2.6680   -1.5240 c3        1 MOL     -0.336397
    114 C36         4.8410   -2.7230   -0.6580 c         1 MOL      0.453773
    115 O17         4.7840   -2.5690    0.5840 o         1 MOL     -0.370342
    116 C37         3.6140   -1.3670   -2.4010 c3        1 MOL      0.310654
    117 C38         2.5390   -1.3210   -3.5320 c3        1 MOL     -0.573591
    118 O18         3.5730   -0.1750   -1.7260 oh        1 MOL     -0.524928
    119 H53         1.8510   -1.8280   -0.6650 hn        1 MOL      0.274887
    120 H54         3.5130   -3.4920   -2.2390 h1        1 MOL      0.145651
    121 H55         4.5320   -1.3260   -2.9810 h1        1 MOL      0.051768
    122 H56         2.6570   -0.0400   -1.4510 ho        1 MOL      0.349900
    123 H57         1.6320   -0.7680   -3.3010 hc        1 MOL      0.156316
    124 H58         2.9570   -0.7740   -4.3770 hc        1 MOL      0.156316
    125 H59         2.3780   -2.3580   -3.8340 hc        1 MOL      0.156316
    126 N11         6.0100   -2.8610   -1.2840 n         1 MOL     -0.328963
    127 C39         7.3530   -2.5630   -0.6110 c3        1 MOL     -0.131549
    128 C40         7.4680   -1.1530   -0.1270 c         1 MOL      0.362712
    129 O19         8.0440   -0.9330    0.9640 o         1 MOL     -0.455173
    130 C41         8.5910   -2.8200   -1.4870 c3        1 MOL      0.205829
    131 C42         8.8820   -4.3500   -1.7560 c3        1 MOL     -0.284097
    132 O20         8.4340   -2.2230   -2.7990 oh        1 MOL     -0.636544
    133 H60         6.0680   -3.1330   -2.2620 hn        1 MOL      0.288054
    134 H61         7.5700   -3.3000    0.1610 h1        1 MOL      0.147106
    135 H62         9.3720   -2.3990   -0.8670 h1        1 MOL      0.076753
    136 H63         9.2630   -2.2690   -3.2900 ho        1 MOL      0.416602
    137 H64         8.0890   -4.7240   -2.4070 hc        1 MOL      0.090519
    138 H65         9.8400   -4.6360   -2.2050 hc        1 MOL      0.090519
    139 H66         8.8670   -4.9700   -0.8630 hc        1 MOL      0.090519
    140 N12         6.9470   -0.1650   -0.8420 n         1 MOL     -0.130619
    141 C43         7.1110    1.2220   -0.4730 c3        1 MOL     -0.277487
    142 C44         6.2440    1.5560    0.7230 c         1 MOL      0.321733
    143 O21         6.8140    2.1160    1.6440 o         1 MOL     -0.473032
    144 C45         6.7670    2.1880   -1.6350 c3        1 MOL      0.086645
    145 C46         6.8840    3.7140   -1.2190 c3        1 MOL     -0.151609
    146 C47         6.6210    4.6580   -2.4050 c3        1 MOL      0.054240
    147 C48         5.2600    4.5310   -3.0570 c3        1 MOL      0.078926
    148 N13         5.2830    5.4470   -4.2050 n4        1 MOL     -0.529350
    149 H67         6.5120   -0.3820   -1.7280 hn        1 MOL      0.209217
    150 H68         8.1560    1.3230   -0.1730 h1        1 MOL      0.186497
    151 H69         5.7000    2.1240   -1.8460 hc        1 MOL      0.000375
    152 H70         7.2380    1.9300   -2.5890 hc        1 MOL      0.000375
    153 H71         7.9070    3.7660   -0.8560 hc        1 MOL      0.083741
    154 H72         6.2090    3.9950   -0.4140 hc        1 MOL      0.083741
    155 H73         7.4430    4.6020   -3.1090 hc        1 MOL      0.015859
    156 H74         6.6260    5.6340   -1.9220 hc        1 MOL      0.015859
    157 H75         4.5690    4.8720   -2.2790 hx        1 MOL      0.074515
    158 H76         5.0270    3.4850   -3.2670 hx        1 MOL      0.074515
    159 H77         4.4330    5.2260   -4.7050 hn        1 MOL      0.372169
    160 H78         5.3460    6.4220   -3.9530 hn        1 MOL      0.372169
    161 H79         6.0520    5.3160   -4.8350 hn        1 MOL      0.372169
    162 N14         5.0940    0.9950    0.8070 n         1 MOL      0.030922
    163 C49         4.2650    1.1310    2.0080 c3        1 MOL     -0.321922
    164 C50         4.9660    0.4550    3.2000 c         1 MOL      0.493613
    165 O22         5.0600    1.0260    4.3000 o         1 MOL     -0.533444
    166 C51         2.8220    0.4430    1.7560 c3        1 MOL      0.255875
    167 C52         2.0740    1.3170    0.6950 c3        1 MOL      0.089329
    168 C53         0.8360    0.7480    0.0770 c         1 MOL      0.767011
    169 O23        -0.2990    1.3320    0.2810 o         1 MOL     -0.768668
    170 O24         0.9830   -0.1720   -0.7670 o         1 MOL     -0.768668
    171 H80         4.7990    0.3910    0.0610 hn        1 MOL      0.049937
    172 H81         4.1220    2.2050    2.1460 h1        1 MOL      0.142566
    173 H82         2.2510    0.3470    2.6760 hc        1 MOL     -0.047871
    174 H83         2.9140   -0.5700    1.3660 hc        1 MOL     -0.047871
    175 H84         2.7970    1.5370   -0.0930 hc        1 MOL     -0.061270
    176 H85         1.7340    2.2710    1.1230 hc        1 MOL     -0.061270
    177 N15         5.3860   -0.8080    3.0050 n         1 MOL     -0.064725
    178 C54         6.0810   -1.5590    4.0900 c3        1 MOL     -0.256053
    179 H86         7.0430   -1.9160    3.7230 h1        1 MOL      0.102368
    180 H87         6.2390   -0.9020    4.9440 h1        1 MOL      0.102368
    181 H88         5.4700   -2.4080    4.3930 h1        1 MOL      0.102368
    182 H89         5.3280   -1.2450    2.1010 hn        1 MOL      0.140060
    183 Ca1        -1.8330   -0.1020   -1.2460 Ca        1 MOL      1.811803
    184 O25        -0.7470   -2.0440   -2.8420 oh        1 MOL     -0.882304
    185 H90        -1.4170   -2.6560   -3.1430 ho        1 MOL      0.399504
    186 H91        -0.1830   -1.9010   -3.5960 ho        1 MOL      0.399504
    187 O26        -0.4930    1.4130   -3.0500 oh        1 MOL     -0.882304
    188 H92        -1.0850    2.1630   -3.0360 ho        1 MOL      0.399504
    189 H93         0.3870    1.7950   -3.0830 ho        1 MOL      0.399504
@<TRIPOS>BOND
     1    1    2 1   
     2    1    4 1   
     3    1    5 1   
     4    1    6 1   
     5    2    3 2   
     6    2    7 1   
     7    7    8 1   
     8    7   15 1   
     9    8    9 1   
    10    8   11 1   
    11    8   16 1   
    12    9   10 2   
    13    9   19 1   
    14   11   12 1   
    15   11   17 1   
    16   11   18 1   
    17   12   13 1   
    18   12   14 1   
    19   19   20 1   
    20   19   28 1   
    21   20   21 1   
    22   20   23 1   
    23   20   29 1   
    24   21   22 2   
    25   21   41 1   
    26   23   24 1   
    27   23   30 1   
    28   23   31 1   
    29   24   25 1   
    30   24   32 1   
    31   24   33 1   
    32   25   26 1   
    33   25   34 1   
    34   25   35 1   
    35   26   27 1   
    36   26   36 1   
    37   26   37 1   
    38   27   38 1   
    39   27   39 1   
    40   27   40 1   
    41   41   42 1   
    42   41   49 1   
    43   42   43 1   
    44   42   45 1   
    45   42   50 1   
    46   43   44 2   
    47   43   53 1   
    48   45   46 1   
    49   45   51 1   
    50   45   52 1   
    51   46   47 1   
    52   46   48 1   
    53   53   54 1   
    54   53   57 1   
    55   54   55 1   
    56   54   58 1   
    57   54   59 1   
    58   55   56 2   
    59   55   60 1   
    60   60   61 1   
    61   60   68 1   
    62   61   62 1   
    63   61   64 1   
    64   61   69 1   
    65   62   63 2   
    66   62   72 1   
    67   64   65 1   
    68   64   70 1   
    69   64   71 1   
    70   65   66 1   
    71   65   67 1   
    72   72   73 1   
    73   72   76 1   
    74   73   74 1   
    75   73   77 1   
    76   73   78 1   
    77   74   75 2   
    78   74   79 1   
    79   79   80 1   
    80   79   86 1   
    81   80   81 1   
    82   80   83 1   
    83   80   87 1   
    84   81   82 2   
    85   81   93 1   
    86   83   84 1   
    87   83   85 1   
    88   83   88 1   
    89   84   90 1   
    90   84   91 1   
    91   84   92 1   
    92   85   89 1   
    93   93   94 1   
    94   93  101 1   
    95   94   95 1   
    96   94   97 1   
    97   94  102 1   
    98   95   96 2   
    99   95  112 1   
   100   97   98 1   
   101   97   99 1   
   102   97  103 1   
   103   98  100 1   
   104   98  104 1   
   105   98  105 1   
   106   99  106 1   
   107   99  107 1   
   108   99  108 1   
   109  100  109 1   
   110  100  110 1   
   111  100  111 1   
   112  112  113 1   
   113  112  119 1   
   114  113  114 1   
   115  113  116 1   
   116  113  120 1   
   117  114  115 2   
   118  114  126 1   
   119  116  117 1   
   120  116  118 1   
   121  116  121 1   
   122  117  123 1   
   123  117  124 1   
   124  117  125 1   
   125  118  122 1   
   126  126  127 1   
   127  126  133 1   
   128  127  128 1   
   129  127  130 1   
   130  127  134 1   
   131  128  129 2   
   132  128  140 1   
   133  130  131 1   
   134  130  132 1   
   135  130  135 1   
   136  131  137 1   
   137  131  138 1   
   138  131  139 1   
   139  132  136 1   
   140  140  141 1   
   141  140  149 1   
   142  141  142 1   
   143  141  144 1   
   144  141  150 1   
   145  142  143 2   
   146  142  162 1   
   147  144  145 1   
   148  144  151 1   
   149  144  152 1   
   150  145  146 1   
   151  145  153 1   
   152  145  154 1   
   153  146  147 1   
   154  146  155 1   
   155  146  156 1   
   156  147  148 1   
   157  147  157 1   
   158  147  158 1   
   159  148  159 1   
   160  148  160 1   
   161  148  161 1   
   162  162  163 1   
   163  162  171 1   
   164  163  164 1   
   165  163  166 1   
   166  163  172 1   
   167  164  165 2   
   168  164  177 1   
   169  166  167 1   
   170  166  173 1   
   171  166  174 1   
   172  167  168 1   
   173  167  175 1   
   174  167  176 1   
   175  168  169 1   
   176  168  170 1   
   177  177  178 1   
   178  177  182 1   
   179  178  179 1   
   180  178  180 1   
   181  178  181 1   
   182  184  185 1   
   183  184  186 1   
   184  187  188 1   
   185  187  189 1   
@<TRIPOS>SUBSTRUCTURE
     1 MOL         1 TEMP              0 ****  ****    0 ROOT
