@<TRIPOS>MOLECULE
MOL
  179   176     1     0     0
SMALL
resp


@<TRIPOS>ATOM
      1 C1          2.2910    0.6870    5.9570 c3        1 MOL     -0.247762
      2 C2          1.7730    0.7120    4.5240 c         1 MOL      0.779467
      3 O1          2.5760    0.6330    3.6100 o         1 MOL     -0.601466
      4 H1          2.1600    1.6700    6.4080 hc        1 MOL      0.061992
      5 H2          1.7350   -0.0540    6.5320 hc        1 MOL      0.061992
      6 H3          3.3500    0.4270    5.9560 hc        1 MOL      0.061992
      7 N1          0.5300    1.0800    4.2490 n         1 MOL     -0.662235
      8 C3          0.0270    1.4130    2.9190 c3        1 MOL      0.202034
      9 C4          0.4600    2.8520    2.6140 c         1 MOL      0.560192
     10 O2          0.0480    3.7610    3.2980 o         1 MOL     -0.549784
     11 C5         -1.4950    1.2380    3.0580 c3        1 MOL     -0.546259
     12 C6         -2.2640    1.6780    1.8390 c         1 MOL      0.929098
     13 O3         -3.4960    1.6180    1.9060 o         1 MOL     -0.715858
     14 O4         -1.6390    1.9410    0.7590 o         1 MOL     -0.715858
     15 H4         -0.1560    1.1200    4.9910 hn        1 MOL      0.327414
     16 H5          0.4020    0.7220    2.1760 h1        1 MOL      0.077968
     17 H6         -1.9200    1.9420    3.7650 hc        1 MOL      0.150245
     18 H7         -1.7430    0.1860    3.2100 hc        1 MOL      0.150245
     19 N2          1.1010    3.0480    1.4590 n         1 MOL     -0.019549
     20 C7          1.6540    4.3780    1.1250 c3        1 MOL     -0.128384
     21 C8          0.6050    5.3070    0.4320 c         1 MOL      0.491664
     22 O5          0.6760    6.5120    0.5360 o         1 MOL     -0.556071
     23 C9          2.8790    4.1690    0.1860 c3        1 MOL      0.163325
     24 C10         3.6990    5.4200    0.0120 c3        1 MOL     -0.235480
     25 C11         5.0090    5.1570   -0.7250 c3        1 MOL      0.175667
     26 C12         5.9750    6.3140   -0.9410 c3        1 MOL      0.002938
     27 N3          7.2000    5.8750   -1.4540 n4        1 MOL     -0.302797
     28 H8          1.4010    2.2300    0.9490 hn        1 MOL     -0.252384
     29 H9          2.0110    4.8500    2.0360 h1        1 MOL      0.104169
     30 H10         2.5490    3.8290   -0.7930 hc        1 MOL      0.047651
     31 H11         3.5810    3.4430    0.5750 hc        1 MOL      0.047651
     32 H12         3.9570    5.8480    0.9790 hc        1 MOL      0.062118
     33 H13         3.1510    6.2160   -0.4940 hc        1 MOL      0.062118
     34 H14         4.7750    4.7710   -1.7140 hc        1 MOL     -0.022289
     35 H15         5.6020    4.3830   -0.2290 hc        1 MOL     -0.022289
     36 H16         6.1770    6.7860    0.0150 hx        1 MOL      0.077933
     37 H17         5.5120    6.9940   -1.6570 hx        1 MOL      0.077933
     38 H18         7.2340    5.5920   -2.4300 hn        1 MOL      0.317334
     39 H19         7.8270    6.6530   -1.4350 hn        1 MOL      0.317334
     40 H20         7.5150    5.1040   -0.8930 hn        1 MOL      0.317334
     41 N4         -0.3210    4.7180   -0.3580 n         1 MOL     -0.159632
     42 C13        -1.4300    5.4200   -1.0760 c3        1 MOL      0.013020
     43 C14        -2.8950    5.3220   -0.5800 c         1 MOL      0.360334
     44 O6         -3.7710    5.9250   -1.1810 o         1 MOL     -0.514534
     45 C15        -1.3560    5.1000   -2.5870 c3        1 MOL     -0.115580
     46 C16        -1.4270    3.6080   -2.9290 c         1 MOL      0.778436
     47 O7         -1.9370    2.7700   -2.1400 o         1 MOL     -0.711024
     48 O8         -0.9800    3.2460   -3.9910 o         1 MOL     -0.711024
     49 H21        -0.4130    3.7100   -0.3140 hn        1 MOL     -0.030546
     50 H22        -1.1410    6.4730   -1.0550 h1        1 MOL      0.093357
     51 H23        -0.4180    5.5270   -2.9700 hc        1 MOL      0.027770
     52 H24        -2.1300    5.7160   -3.0610 hc        1 MOL      0.027770
     53 N5         -3.1710    4.4140    0.3300 n         1 MOL     -0.038462
     54 C17        -4.4430    4.5230    1.0340 c3        1 MOL     -0.387958
     55 C18        -5.5520    3.7510    0.3850 c         1 MOL      0.577457
     56 O9         -6.7300    3.9710    0.7110 o         1 MOL     -0.575837
     57 H25        -2.4720    3.7920    0.7020 hn        1 MOL      0.185746
     58 H26        -4.8410    5.5350    0.9300 h1        1 MOL      0.154521
     59 H27        -4.3670    4.1280    2.0400 h1        1 MOL      0.154521
     60 N6         -5.2490    2.7690   -0.5050 n         1 MOL     -0.129061
     61 C19        -6.2160    1.9280   -1.1760 c3        1 MOL     -0.221243
     62 C20        -6.6250    0.7800   -0.1920 c         1 MOL      0.369590
     63 O10        -7.4890   -0.0180   -0.5670 o         1 MOL     -0.460138
     64 C21        -5.7280    1.4550   -2.5990 c3        1 MOL     -0.032684
     65 C22        -4.7560    0.3050   -2.6560 c         1 MOL      0.668702
     66 N7         -4.9730   -0.4730   -3.7590 n         1 MOL     -0.808121
     67 O11        -3.8760    0.1180   -1.8240 o         1 MOL     -0.555832
     68 H28        -4.2650    2.5940   -0.6610 hn        1 MOL      0.061348
     69 H29        -7.1450    2.5000   -1.2620 h1        1 MOL      0.166970
     70 H30        -5.2880    2.2060   -3.2680 hc        1 MOL      0.053440
     71 H31        -6.6310    1.2160   -3.1610 hc        1 MOL      0.053440
     72 H32        -5.6940   -0.1490   -4.3850 hn        1 MOL      0.376696
     73 H33        -4.5880   -1.4050   -3.7970 hn        1 MOL      0.376696
     74 N8         -6.0790    0.6570    0.9870 n         1 MOL     -0.217572
     75 C23        -6.3690   -0.4110    1.9670 c3        1 MOL     -0.094071
     76 C24        -5.6070   -1.7300    1.7730 c         1 MOL      0.437128
     77 O12        -6.1280   -2.7640    2.1730 o         1 MOL     -0.497220
     78 H34        -5.3260    1.2590    1.2990 hn        1 MOL      0.275454
     79 H35        -7.4430   -0.6110    1.9810 h1        1 MOL      0.091977
     80 H36        -6.1180   -0.1270    2.9780 h1        1 MOL      0.091977
     81 N9         -4.4490   -1.6770    1.1560 n         1 MOL     -0.160241
     82 C25        -3.5360   -2.8190    0.9500 c3        1 MOL      0.115397
     83 C26        -2.0150   -2.4240    1.0630 c         1 MOL      0.362069
     84 O13        -1.6240   -1.2570    0.8050 o         1 MOL     -0.559782
     85 C27        -3.9170   -3.4290   -0.4040 c3        1 MOL      0.157930
     86 C28        -5.3340   -3.9950   -0.5730 ca        1 MOL     -0.010255
     87 C29        -6.4900   -3.1740   -0.8140 ca        1 MOL     -0.157561
     88 C30        -5.5840   -5.3870   -0.5880 ca        1 MOL     -0.157561
     89 C31        -7.7710   -3.7470   -0.7950 ca        1 MOL     -0.267659
     90 C32        -6.8210   -5.9900   -0.7310 ca        1 MOL     -0.267659
     91 C33        -7.9280   -5.1310   -0.7970 ca        1 MOL      0.356449
     92 O14        -9.1960   -5.7140   -0.7070 oh        1 MOL     -0.463298
     93 H37        -4.0890   -0.7520    0.9860 hn        1 MOL      0.089228
     94 H38        -3.7840   -3.6230    1.6370 h1        1 MOL      0.014769
     95 H39        -3.2430   -4.2730   -0.5740 hc        1 MOL     -0.045446
     96 H40        -3.8170   -2.6890   -1.1980 hc        1 MOL     -0.045446
     97 H41        -6.3740   -2.1010   -0.9110 ha        1 MOL      0.105719
     98 H42        -4.7390   -6.0480   -0.4440 ha        1 MOL      0.105719
     99 H43        -8.6690   -3.1460   -0.8750 ha        1 MOL      0.156496
    100 H44        -6.9590   -7.0530   -0.6240 ha        1 MOL      0.156496
    101 H45        -9.0310   -6.6570   -0.7240 ho        1 MOL      0.315731
    102 N10        -1.1390   -3.2990    1.4820 n         1 MOL     -0.300437
    103 C34         0.3220   -3.1460    1.4560 c3        1 MOL     -0.003149
    104 C35         0.9490   -3.8660    0.2810 c         1 MOL      0.518691
    105 O15         0.7500   -5.1050    0.2640 o         1 MOL     -0.562976
    106 C36         0.9850   -3.6190    2.7460 c3        1 MOL      0.080897
    107 C37         0.2890   -2.9930    3.9630 c3        1 MOL      0.131592
    108 C38         2.5200   -3.2990    2.6340 c3        1 MOL     -0.135665
    109 C39         0.7740   -3.6980    5.2820 c3        1 MOL     -0.321588
    110 H46        -1.4340   -4.2500    1.6530 hn        1 MOL      0.272924
    111 H47         0.5540   -2.0760    1.4200 h1        1 MOL      0.152290
    112 H48         0.8820   -4.7070    2.8350 hc        1 MOL      0.005056
    113 H49        -0.7840   -3.1100    3.8390 hc        1 MOL     -0.031277
    114 H50         0.4380   -1.9080    4.0390 hc        1 MOL     -0.031277
    115 H51         3.0210   -3.5590    3.5670 hc        1 MOL      0.019303
    116 H52         2.9360   -3.8900    1.8160 hc        1 MOL      0.019303
    117 H53         2.7610   -2.2450    2.5190 hc        1 MOL      0.019303
    118 H54         1.8550   -3.6320    5.4090 hc        1 MOL      0.077383
    119 H55         0.2420   -3.2710    6.1340 hc        1 MOL      0.077383
    120 H56         0.5550   -4.7660    5.3220 hc        1 MOL      0.077383
    121 N11         1.6240   -3.1760   -0.6770 n         1 MOL     -0.401539
    122 C40         2.5140   -3.6420   -1.6890 c3        1 MOL      0.144512
    123 C41         3.9220   -3.8120   -1.1280 c         1 MOL      0.451939
    124 O16         4.3110   -3.1510   -0.1040 o         1 MOL     -0.448029
    125 C42         2.5010   -2.8220   -2.9700 c3        1 MOL      0.142745
    126 O17         1.2710   -2.6170   -3.4110 oh        1 MOL     -0.549325
    127 H57         1.4530   -2.1700   -0.6730 hn        1 MOL      0.234015
    128 H58         2.1140   -4.6010   -2.0260 h1        1 MOL     -0.008202
    129 H59         3.1260   -3.4510   -3.5930 h1        1 MOL      0.011472
    130 H60         2.9210   -1.8720   -2.6420 h1        1 MOL      0.011472
    131 H61         1.0110   -3.5090   -3.6620 ho        1 MOL      0.413841
    132 N12         4.7400   -4.5390   -1.8360 n         1 MOL     -0.383719
    133 C43         6.0710   -4.8150   -1.3670 c3        1 MOL      0.089881
    134 C44         7.0300   -3.6460   -1.3460 c         1 MOL      0.460983
    135 O18         7.9950   -3.6440   -0.6400 o         1 MOL     -0.530072
    136 C45         6.6300   -5.9530   -2.3170 c3        1 MOL     -0.251345
    137 H62         4.4610   -5.1190   -2.6180 hn        1 MOL      0.275193
    138 H63         5.9700   -5.1810   -0.3510 h1        1 MOL      0.085330
    139 H64         7.4670   -6.4340   -1.8090 hc        1 MOL      0.084567
    140 H65         5.9200   -6.7380   -2.5810 hc        1 MOL      0.084567
    141 H66         7.1070   -5.5250   -3.2040 hc        1 MOL      0.084567
    142 N13         6.7440   -2.5910   -2.0690 n         1 MOL     -0.263637
    143 C46         7.5010   -1.3140   -2.1720 c3        1 MOL      0.244993
    144 C47         7.1120   -0.3150   -1.0610 c         1 MOL      0.257245
    145 O19         7.8400    0.4660   -0.5190 o         1 MOL     -0.504876
    146 C48         7.1680   -0.7550   -3.5430 c3        1 MOL     -0.356588
    147 H67         5.9140   -2.7150   -2.6330 hn        1 MOL      0.101315
    148 H68         8.5750   -1.4930   -2.0970 h1        1 MOL      0.060910
    149 H69         7.4960   -1.5300   -4.2270 hc        1 MOL      0.097256
    150 H70         6.1630   -0.3310   -3.6020 hc        1 MOL      0.097256
    151 H71         7.9120    0.0310   -3.6940 hc        1 MOL      0.097256
    152 N14         5.8340   -0.3600   -0.7360 n         1 MOL     -0.084911
    153 C49         5.2330    0.4620    0.4250 c3        1 MOL     -0.151271
    154 C50         5.7040   -0.0960    1.7960 c         1 MOL      0.507779
    155 O20         5.8330    0.6670    2.7130 o         1 MOL     -0.557117
    156 C51         3.6740    0.4820    0.3700 c3        1 MOL      0.091675
    157 C52         3.2340    0.8450   -0.9940 c3        1 MOL     -0.058737
    158 C53         1.7040    0.6700   -1.0410 c         1 MOL      0.559534
    159 O21         1.1760   -0.4350   -0.7110 o         1 MOL     -0.595123
    160 O22         0.9280    1.6060   -1.1660 o         1 MOL     -0.595123
    161 H72         5.2150   -0.9340   -1.2940 hn        1 MOL      0.163330
    162 H73         5.5060    1.5120    0.3700 h1        1 MOL      0.068679
    163 H74         3.1880    1.1270    1.1060 hc        1 MOL      0.043535
    164 H75         3.4170   -0.5440    0.6350 hc        1 MOL      0.043535
    165 H76         3.7800    0.3030   -1.7720 hc        1 MOL     -0.017846
    166 H77         3.4630    1.8980   -1.1570 hc        1 MOL     -0.017846
    167 N15         5.9540   -1.3580    1.8770 n         1 MOL     -0.030184
    168 C54         6.7460   -2.0280    2.8930 c3        1 MOL     -0.306647
    169 H78         6.0890   -2.6050    3.5430 h1        1 MOL      0.115609
    170 H79         7.4610   -2.6960    2.4140 h1        1 MOL      0.115609
    171 H80         7.2810   -1.2850    3.4850 h1        1 MOL      0.115609
    172 H81         5.7150   -1.9390    1.0880 hn        1 MOL      0.122026
    173 Ca1        -1.3020    0.4930   -1.2900 Ca        1 MOL      1.724674
    174 O23        -0.6580    0.5000   -3.8650 oh        1 MOL     -0.897034
    175 H82         0.1230    0.1210   -4.2640 ho        1 MOL      0.412978
    176 H83        -0.6870    1.4000   -4.1880 ho        1 MOL      0.412978
    177 O24        -1.3360   -1.9640   -2.3540 oh        1 MOL     -0.897034
    178 H84        -0.4720   -2.1930   -2.6950 ho        1 MOL      0.412978
    179 H85        -1.9490   -2.3770   -2.9580 ho        1 MOL      0.412978
@<TRIPOS>BOND
     1    1    2 1   
     2    1    4 1   
     3    1    5 1   
     4    1    6 1   
     5    2    3 2   
     6    2    7 1   
     7    7    8 1   
     8    7   15 1   
     9    8    9 1   
    10    8   11 1   
    11    8   16 1   
    12    9   10 2   
    13    9   19 1   
    14   11   12 1   
    15   11   17 1   
    16   11   18 1   
    17   12   13 1   
    18   12   14 1   
    19   19   20 1   
    20   19   28 1   
    21   20   21 1   
    22   20   23 1   
    23   20   29 1   
    24   21   22 2   
    25   21   41 1   
    26   23   24 1   
    27   23   30 1   
    28   23   31 1   
    29   24   25 1   
    30   24   32 1   
    31   24   33 1   
    32   25   26 1   
    33   25   34 1   
    34   25   35 1   
    35   26   27 1   
    36   26   36 1   
    37   26   37 1   
    38   27   38 1   
    39   27   39 1   
    40   27   40 1   
    41   41   42 1   
    42   41   49 1   
    43   42   43 1   
    44   42   45 1   
    45   42   50 1   
    46   43   44 2   
    47   43   53 1   
    48   45   46 1   
    49   45   51 1   
    50   45   52 1   
    51   46   47 1   
    52   46   48 1   
    53   53   54 1   
    54   53   57 1   
    55   54   55 1   
    56   54   58 1   
    57   54   59 1   
    58   55   56 2   
    59   55   60 1   
    60   60   61 1   
    61   60   68 1   
    62   61   62 1   
    63   61   64 1   
    64   61   69 1   
    65   62   63 2   
    66   62   74 1   
    67   64   65 1   
    68   64   70 1   
    69   64   71 1   
    70   65   66 1   
    71   65   67 2   
    72   66   72 1   
    73   66   73 1   
    74   74   75 1   
    75   74   78 1   
    76   75   76 1   
    77   75   79 1   
    78   75   80 1   
    79   76   77 2   
    80   76   81 1   
    81   81   82 1   
    82   81   93 1   
    83   82   83 1   
    84   82   85 1   
    85   82   94 1   
    86   83   84 2   
    87   83  102 1   
    88   85   86 1   
    89   85   95 1   
    90   85   96 1   
    91   86   87 ar  
    92   86   88 ar  
    93   87   89 ar  
    94   87   97 1   
    95   88   90 ar  
    96   88   98 1   
    97   89   91 ar  
    98   89   99 1   
    99   90   91 ar  
   100   90  100 1   
   101   91   92 1   
   102   92  101 1   
   103  102  103 1   
   104  102  110 1   
   105  103  104 1   
   106  103  106 1   
   107  103  111 1   
   108  104  105 2   
   109  104  121 1   
   110  106  107 1   
   111  106  108 1   
   112  106  112 1   
   113  107  109 1   
   114  107  113 1   
   115  107  114 1   
   116  108  115 1   
   117  108  116 1   
   118  108  117 1   
   119  109  118 1   
   120  109  119 1   
   121  109  120 1   
   122  121  122 1   
   123  121  127 1   
   124  122  123 1   
   125  122  125 1   
   126  122  128 1   
   127  123  124 2   
   128  123  132 1   
   129  125  126 1   
   130  125  129 1   
   131  125  130 1   
   132  126  131 1   
   133  132  133 1   
   134  132  137 1   
   135  133  134 1   
   136  133  136 1   
   137  133  138 1   
   138  134  135 2   
   139  134  142 1   
   140  136  139 1   
   141  136  140 1   
   142  136  141 1   
   143  142  143 1   
   144  142  147 1   
   145  143  144 1   
   146  143  146 1   
   147  143  148 1   
   148  144  145 2   
   149  144  152 1   
   150  146  149 1   
   151  146  150 1   
   152  146  151 1   
   153  152  153 1   
   154  152  161 1   
   155  153  154 1   
   156  153  156 1   
   157  153  162 1   
   158  154  155 2   
   159  154  167 1   
   160  156  157 1   
   161  156  163 1   
   162  156  164 1   
   163  157  158 1   
   164  157  165 1   
   165  157  166 1   
   166  158  159 1   
   167  158  160 1   
   168  167  168 1   
   169  167  172 1   
   170  168  169 1   
   171  168  170 1   
   172  168  171 1   
   173  174  175 1   
   174  174  176 1   
   175  177  178 1   
   176  177  179 1   
@<TRIPOS>SUBSTRUCTURE
     1 MOL         1 TEMP              0 ****  ****    0 ROOT
