@<TRIPOS>MOLECULE
MOL
  175   173     1     0     0
SMALL
resp


@<TRIPOS>ATOM
      1 C1          0.3090    4.2180    5.5440 c3        1 MOL     -0.469102
      2 C2         -0.2350    3.9680    4.1510 c         1 MOL      0.769438
      3 O1          0.5090    4.1180    3.2050 o         1 MOL     -0.582336
      4 H1          1.0350    5.0310    5.5090 hc        1 MOL      0.109371
      5 H2         -0.5090    4.4910    6.2100 hc        1 MOL      0.109371
      6 H3          0.7940    3.3140    5.9130 hc        1 MOL      0.109371
      7 N1         -1.4300    3.5030    4.0650 n         1 MOL     -0.649810
      8 C3         -2.0920    3.3630    2.8060 c3        1 MOL      0.284882
      9 C4         -2.0630    4.6210    1.8690 c         1 MOL      0.562617
     10 O2         -2.2880    5.7130    2.2970 o         1 MOL     -0.581145
     11 C5         -3.5350    2.8700    3.0660 c3        1 MOL     -0.501914
     12 C6         -4.1180    2.1440    1.8580 c         1 MOL      0.860582
     13 O3         -5.1880    1.5150    2.0240 o         1 MOL     -0.699657
     14 O4         -3.5580    1.9940    0.7420 o         1 MOL     -0.699657
     15 H4         -1.9800    3.2070    4.8610 hn        1 MOL      0.338681
     16 H5         -1.5520    2.6070    2.2330 h1        1 MOL     -0.016493
     17 H6         -4.1770    3.7340    3.2290 hc        1 MOL      0.113115
     18 H7         -3.5560    2.2700    3.9720 hc        1 MOL      0.113115
     19 N2         -1.7800    4.3630    0.6010 n         1 MOL     -0.582607
     20 C7         -1.7000    5.3940   -0.4740 c3        1 MOL      0.324019
     21 C8         -2.7560    5.1060   -1.5630 c         1 MOL      0.401536
     22 O5         -3.0230    6.0500   -2.3330 o         1 MOL     -0.563231
     23 C9         -0.3040    5.5460   -0.9100 c3        1 MOL     -0.250923
     24 H8         -1.5790    3.4200    0.3000 hn        1 MOL      0.578704
     25 H9         -1.8650    6.3370    0.0380 h1        1 MOL      0.013464
     26 H10         0.3120    5.9760   -0.1230 hc        1 MOL      0.053365
     27 H11         0.0140    4.5540   -1.2220 hc        1 MOL      0.053365
     28 H12        -0.4000    6.2350   -1.7510 hc        1 MOL      0.053365
     29 N3         -3.4080    3.8940   -1.5990 n         1 MOL     -0.315047
     30 C10        -4.4390    3.6000   -2.6490 c3        1 MOL      0.263990
     31 C11        -5.7930    2.9020   -2.3200 c         1 MOL      0.322677
     32 O6         -6.6870    2.9370   -3.1670 o         1 MOL     -0.536780
     33 C12        -3.8300    2.8650   -3.7820 c3        1 MOL     -0.210762
     34 C13        -3.2360    1.4930   -3.3240 c         1 MOL      0.767737
     35 O7         -3.6240    0.9330   -2.3250 o         1 MOL     -0.715664
     36 O8         -2.3480    0.9620   -4.0030 o         1 MOL     -0.715664
     37 H13        -3.2000    3.1890   -0.9010 hn        1 MOL     -0.011859
     38 H14        -4.8230    4.5310   -3.0610 h1        1 MOL      0.032239
     39 H15        -2.9550    3.4870   -4.0230 hc        1 MOL      0.036293
     40 H16        -4.4900    2.9090   -4.6540 hc        1 MOL      0.036293
     41 N4         -5.9380    2.2960   -1.1490 n         1 MOL     -0.232430
     42 C14        -7.1550    1.5650   -0.7760 c3        1 MOL     -0.064806
     43 C15        -7.1800    0.0940   -1.0850 c         1 MOL      0.544849
     44 O9         -8.1970   -0.5280   -0.7950 o         1 MOL     -0.636118
     45 H17        -5.1670    2.3580   -0.4880 hn        1 MOL      0.184180
     46 H18        -8.0070    1.9420   -1.3420 h1        1 MOL      0.077858
     47 H19        -7.4080    1.8030    0.2510 h1        1 MOL      0.077858
     48 N5         -6.1830   -0.5980   -1.6030 n         1 MOL     -0.249948
     49 C16        -6.1800   -1.9870   -2.2150 c3        1 MOL     -0.037526
     50 C17        -6.2610   -3.1150   -1.1190 c         1 MOL      0.500739
     51 O10        -6.7660   -4.1690   -1.5200 o         1 MOL     -0.592428
     52 C18        -5.0260   -1.9500   -3.2050 c3        1 MOL     -0.076805
     53 C19        -3.6510   -2.3030   -2.5990 c         1 MOL      0.561244
     54 N6         -2.7440   -2.8110   -3.3390 n         1 MOL     -0.627262
     55 O11        -3.3970   -2.1210   -1.4280 o         1 MOL     -0.640700
     56 H20        -5.3370   -0.0850   -1.8250 hn        1 MOL      0.204197
     57 H21        -7.0890   -2.0460   -2.8090 h1        1 MOL      0.092343
     58 H22        -4.9170   -0.9490   -3.6220 hc        1 MOL      0.050172
     59 H23        -5.2750   -2.5700   -4.0630 hc        1 MOL      0.050172
     60 H24        -2.8830   -3.0040   -4.3110 hn        1 MOL      0.331569
     61 H25        -1.7970   -2.7360   -2.9840 hn        1 MOL      0.331569
     62 N7         -5.8610   -2.9560    0.1440 n         1 MOL     -0.093569
     63 C20        -6.0560   -3.9420    1.2730 c3        1 MOL     -0.322797
     64 C21        -4.7410   -4.6650    1.6900 c         1 MOL      0.598253
     65 O12        -4.6940   -5.4400    2.6320 o         1 MOL     -0.599927
     66 H26        -5.6170   -1.9900    0.3230 hn        1 MOL      0.152306
     67 H27        -6.7990   -4.6980    0.9980 h1        1 MOL      0.135066
     68 H28        -6.3850   -3.3540    2.1230 h1        1 MOL      0.135066
     69 N8         -3.6420   -4.3780    1.0200 n         1 MOL     -0.225006
     70 C22        -2.3150   -4.7720    1.3110 c3        1 MOL     -0.139751
     71 C23        -1.4410   -3.5310    1.5900 c         1 MOL      0.498069
     72 O13        -1.7140   -2.4300    1.0990 o         1 MOL     -0.513627
     73 C24        -1.6900   -5.5440    0.1840 c3        1 MOL      0.489557
     74 C25        -2.1290   -7.0360    0.3140 c3        1 MOL     -0.291075
     75 O14        -1.9610   -5.1230   -1.1070 oh        1 MOL     -0.594192
     76 H29        -3.6930   -3.7380    0.2340 hn        1 MOL      0.182632
     77 H30        -2.3710   -5.3520    2.2400 h1        1 MOL      0.101162
     78 H31        -0.6030   -5.6220    0.2630 h1        1 MOL     -0.037732
     79 H32        -1.4820   -4.2970   -1.2440 ho        1 MOL      0.360263
     80 H33        -3.2080   -7.0320    0.3950 hc        1 MOL      0.062882
     81 H34        -1.7980   -7.6630   -0.5080 hc        1 MOL      0.062882
     82 H35        -1.7740   -7.4210    1.2780 hc        1 MOL      0.062882
     83 N9         -0.3240   -3.6560    2.3510 n         1 MOL     -0.532574
     84 C26         0.7300   -2.6700    2.3500 c3        1 MOL      0.152857
     85 C27         1.6130   -3.0620    1.1730 c         1 MOL      0.504608
     86 O15         2.2170   -4.1210    1.1540 o         1 MOL     -0.597208
     87 C28         1.6140   -2.5670    3.5950 c3        1 MOL      0.024410
     88 C29         0.7420   -1.6830    4.5580 c3        1 MOL     -0.010189
     89 C30         3.0080   -1.8920    3.3780 c3        1 MOL     -0.219376
     90 C31         1.3410   -1.5820    5.9730 c3        1 MOL     -0.135481
     91 H36        -0.1640   -4.5440    2.8170 hn        1 MOL      0.277071
     92 H37         0.2540   -1.7030    2.1770 h1        1 MOL      0.005568
     93 H38         1.7570   -3.5920    3.9280 hc        1 MOL      0.029544
     94 H39        -0.2780   -2.0490    4.5630 hc        1 MOL      0.023694
     95 H40         0.6750   -0.6660    4.1700 hc        1 MOL      0.023694
     96 H41         3.6080   -1.7950    4.2730 hc        1 MOL      0.056771
     97 H42         3.6220   -2.2940    2.5780 hc        1 MOL      0.056771
     98 H43         2.7810   -0.9030    2.9750 hc        1 MOL      0.056771
     99 H44         0.5830   -1.1810    6.6550 hc        1 MOL      0.028392
    100 H45         1.6350   -2.5760    6.2910 hc        1 MOL      0.028392
    101 H46         2.2290   -0.9460    6.0380 hc        1 MOL      0.028392
    102 N10         1.7560   -2.1030    0.2580 n         1 MOL     -0.080287
    103 C32         2.6290   -2.2250   -1.0070 c3        1 MOL      0.018205
    104 C33         4.0340   -1.6890   -0.7480 c         1 MOL      0.332311
    105 O16         4.2040   -0.9890    0.2220 o         1 MOL     -0.165163
    106 C34         1.9890   -1.1790   -1.9370 c3        1 MOL     -0.215666
    107 C35         0.5720   -1.4500   -2.3040 c         1 MOL      0.752707
    108 O17         0.3550   -2.0330   -3.3950 o         1 MOL     -0.676193
    109 O18        -0.3920   -1.1700   -1.5350 o         1 MOL     -0.676193
    110 H47         1.2600   -1.2410    0.4240 hn        1 MOL     -0.134277
    111 H48         2.6350   -3.2430   -1.4000 h1        1 MOL      0.086792
    112 H49         2.5680   -1.1300   -2.8600 hc        1 MOL      0.062046
    113 H50         2.0340   -0.2130   -1.4390 hc        1 MOL      0.062046
    114 N11         5.0370   -2.0310   -1.5420 n         1 MOL     -0.652344
    115 C36         6.3740   -1.4920   -1.2810 c3        1 MOL      0.582923
    116 C37         6.4900    0.0490   -1.2250 c         1 MOL      0.200246
    117 O19         7.2720    0.4320   -0.3440 o         1 MOL     -0.481760
    118 C38         7.3470   -2.0260   -2.3400 c3        1 MOL     -0.429297
    119 C39         8.7760   -1.6740   -1.9720 ca        1 MOL      0.229632
    120 C40         9.6270   -1.1190   -2.9550 ca        1 MOL     -0.167243
    121 C41         9.3160   -2.0090   -0.7520 ca        1 MOL     -0.167243
    122 C42        10.9680   -0.8750   -2.6200 ca        1 MOL     -0.174748
    123 C43        10.6390   -1.7660   -0.4450 ca        1 MOL     -0.174748
    124 C44        11.4710   -1.1300   -1.3370 ca        1 MOL     -0.042741
    125 H51         4.9150   -2.6430   -2.3330 hn        1 MOL      0.349836
    126 H52         6.6780   -1.9690   -0.3500 h1        1 MOL      0.033906
    127 H53         7.0210   -1.6970   -3.3190 hc        1 MOL      0.090093
    128 H54         7.3150   -3.1090   -2.2010 hc        1 MOL      0.090093
    129 H55         9.2340   -0.9630   -3.9450 ha        1 MOL      0.113937
    130 H56         8.7140   -2.5090    0.0040 ha        1 MOL      0.113937
    131 H57        11.6970   -0.4760   -3.3050 ha        1 MOL      0.121088
    132 H58        10.8780   -2.0180    0.5750 ha        1 MOL      0.121088
    133 H59        12.4830   -0.8020   -1.1870 ha        1 MOL      0.089097
    134 N12         5.8050    0.9410   -1.9350 n         1 MOL      0.024698
    135 C45         5.8490    2.3930   -1.7410 c3        1 MOL     -0.103214
    136 C46         5.1340    2.8690   -0.4800 c         1 MOL      0.414454
    137 O20         5.1010    4.0400   -0.1680 o         1 MOL     -0.556620
    138 C47         5.1470    2.9990   -3.0420 c3        1 MOL      0.023995
    139 C48         5.1830    1.9010   -4.0370 c3        1 MOL     -0.040632
    140 C49         5.0070    0.6640   -3.1170 c3        1 MOL     -0.107157
    141 H60         6.9030    2.6670   -1.6390 h1        1 MOL      0.106490
    142 H61         4.1490    3.3270   -2.7660 hc        1 MOL      0.038576
    143 H62         5.6140    3.8940   -3.4420 hc        1 MOL      0.038576
    144 H63         4.3660    1.9080   -4.7670 hc        1 MOL      0.023207
    145 H64         6.1360    1.7930   -4.5600 hc        1 MOL      0.023207
    146 H65         3.9810    0.7420   -2.7400 h1        1 MOL      0.098877
    147 H66         5.2710   -0.2680   -3.6190 h1        1 MOL      0.098877
    148 N13         4.5870    1.9680    0.3020 n         1 MOL      0.001396
    149 C50         3.7970    2.0920    1.5510 c3        1 MOL     -0.006744
    150 C51         4.5180    1.3850    2.6930 c         1 MOL      0.408268
    151 O21         4.5530    1.9360    3.8050 o         1 MOL     -0.550835
    152 C52         2.4270    1.5410    1.3930 c3        1 MOL     -0.003451
    153 C53         1.6020    2.2030    0.3330 c3        1 MOL      0.000462
    154 C54         0.2370    1.5010    0.2590 c         1 MOL      0.439150
    155 O22        -0.5960    1.7420   -0.6350 o         1 MOL     -0.642789
    156 O23        -0.0370    0.5670    1.0570 o         1 MOL     -0.642789
    157 H67         4.5900    1.0640   -0.1360 hn        1 MOL     -0.170395
    158 H68         3.7550    3.1360    1.8510 h1        1 MOL      0.093230
    159 H69         1.9960    1.5670    2.3960 hc        1 MOL      0.076136
    160 H70         2.4110    0.4780    1.1390 hc        1 MOL      0.076136
    161 H71         2.0800    2.3000   -0.6450 hc        1 MOL      0.041490
    162 H72         1.4450    3.2100    0.7250 hc        1 MOL      0.041490
    163 N14         5.2700    0.2800    2.4260 n         1 MOL      0.018663
    164 C55         6.4480   -0.0420    3.2400 c3        1 MOL     -0.177236
    165 H73         7.1960    0.7410    3.1220 h1        1 MOL      0.071024
    166 H74         6.1570   -0.1120    4.2880 h1        1 MOL      0.071024
    167 H75         6.8650   -0.9960    2.9140 h1        1 MOL      0.071024
    168 H76         5.1230   -0.0870    1.4940 hn        1 MOL     -0.067347
    169 Ca1        -2.2480   -0.0850   -0.2300 Ca        1 MOL      1.682186
    170 O24        -4.5530   -0.8100    1.2350 oh        1 MOL     -0.705748
    171 H77        -4.2380   -1.2960    1.9900 ho        1 MOL      0.351717
    172 H78        -4.9350   -0.0160    1.5920 ho        1 MOL      0.351717
    173 O25        -1.9990   -0.0150    2.5610 oh        1 MOL     -0.705748
    174 H79        -1.0620   -0.0530    2.3580 ho        1 MOL      0.351717
    175 H80        -2.0400    0.0320    3.5170 ho        1 MOL      0.351717
@<TRIPOS>BOND
     1    1    2 1   
     2    1    4 1   
     3    1    5 1   
     4    1    6 1   
     5    2    3 2   
     6    2    7 1   
     7    7    8 1   
     8    7   15 1   
     9    8    9 1   
    10    8   11 1   
    11    8   16 1   
    12    9   10 2   
    13    9   19 1   
    14   11   12 1   
    15   11   17 1   
    16   11   18 1   
    17   12   13 1   
    18   12   14 1   
    19   19   20 1   
    20   19   24 1   
    21   20   21 1   
    22   20   23 1   
    23   20   25 1   
    24   21   22 2   
    25   21   29 1   
    26   23   26 1   
    27   23   27 1   
    28   23   28 1   
    29   29   30 1   
    30   29   37 1   
    31   30   31 1   
    32   30   33 1   
    33   30   38 1   
    34   31   32 2   
    35   31   41 1   
    36   33   34 1   
    37   33   39 1   
    38   33   40 1   
    39   34   35 1   
    40   34   36 1   
    41   41   42 1   
    42   41   45 1   
    43   42   43 1   
    44   42   46 1   
    45   42   47 1   
    46   43   44 2   
    47   43   48 1   
    48   48   49 1   
    49   48   56 1   
    50   49   50 1   
    51   49   52 1   
    52   49   57 1   
    53   50   51 2   
    54   50   62 1   
    55   52   53 1   
    56   52   58 1   
    57   52   59 1   
    58   53   54 1   
    59   53   55 2   
    60   54   60 1   
    61   54   61 1   
    62   62   63 1   
    63   62   66 1   
    64   63   64 1   
    65   63   67 1   
    66   63   68 1   
    67   64   65 2   
    68   64   69 1   
    69   69   70 1   
    70   69   76 1   
    71   70   71 1   
    72   70   73 1   
    73   70   77 1   
    74   71   72 2   
    75   71   83 1   
    76   73   74 1   
    77   73   75 1   
    78   73   78 1   
    79   74   80 1   
    80   74   81 1   
    81   74   82 1   
    82   75   79 1   
    83   83   84 1   
    84   83   91 1   
    85   84   85 1   
    86   84   87 1   
    87   84   92 1   
    88   85   86 2   
    89   85  102 1   
    90   87   88 1   
    91   87   89 1   
    92   87   93 1   
    93   88   90 1   
    94   88   94 1   
    95   88   95 1   
    96   89   96 1   
    97   89   97 1   
    98   89   98 1   
    99   90   99 1   
   100   90  100 1   
   101   90  101 1   
   102  102  103 1   
   103  102  110 1   
   104  103  104 1   
   105  103  106 1   
   106  103  111 1   
   107  104  105 2   
   108  104  114 1   
   109  106  107 1   
   110  106  112 1   
   111  106  113 1   
   112  107  108 1   
   113  107  109 1   
   114  114  115 1   
   115  114  125 1   
   116  115  116 1   
   117  115  118 1   
   118  115  126 1   
   119  116  117 2   
   120  116  134 1   
   121  118  119 1   
   122  118  127 1   
   123  118  128 1   
   124  119  120 ar  
   125  119  121 ar  
   126  120  122 ar  
   127  120  129 1   
   128  121  123 ar  
   129  121  130 1   
   130  122  124 ar  
   131  122  131 1   
   132  123  124 ar  
   133  123  132 1   
   134  124  133 1   
   135  134  135 1   
   136  134  140 1   
   137  135  136 1   
   138  135  138 1   
   139  135  141 1   
   140  136  137 2   
   141  136  148 1   
   142  138  139 1   
   143  138  142 1   
   144  138  143 1   
   145  139  140 1   
   146  139  144 1   
   147  139  145 1   
   148  140  146 1   
   149  140  147 1   
   150  148  149 1   
   151  148  157 1   
   152  149  150 1   
   153  149  152 1   
   154  149  158 1   
   155  150  151 2   
   156  150  163 1   
   157  152  153 1   
   158  152  159 1   
   159  152  160 1   
   160  153  154 1   
   161  153  161 1   
   162  153  162 1   
   163  154  155 1   
   164  154  156 1   
   165  163  164 1   
   166  163  168 1   
   167  164  165 1   
   168  164  166 1   
   169  164  167 1   
   170  170  171 1   
   171  170  172 1   
   172  173  174 1   
   173  173  175 1   
@<TRIPOS>SUBSTRUCTURE
     1 MOL         1 TEMP              0 ****  ****    0 ROOT
