@<TRIPOS>MOLECULE
MOL
  175   173     1     0     0
SMALL
resp


@<TRIPOS>ATOM
      1 C1          1.0660   -3.5820    5.9840 c3        1 MOL     -0.387367
      2 C2          1.1250   -3.3200    4.4480 c         1 MOL      0.702241
      3 O1          0.1000   -3.4630    3.7040 o         1 MOL     -0.588977
      4 H1          0.8420   -2.6490    6.5030 hc        1 MOL      0.094169
      5 H2          0.2870   -4.3130    6.1990 hc        1 MOL      0.094169
      6 H3          2.0270   -3.9650    6.3250 hc        1 MOL      0.094169
      7 N1          2.3190   -2.9030    4.0040 n         1 MOL     -0.610684
      8 C3          2.5490   -2.4830    2.6530 c3        1 MOL      0.187064
      9 C4          3.0790   -3.6130    1.8280 c         1 MOL      0.641476
     10 O2          4.0370   -4.3020    2.1960 o         1 MOL     -0.602772
     11 C5          3.6870   -1.3980    2.7520 c3        1 MOL     -0.137043
     12 C6          4.3110   -0.8770    1.5060 c         1 MOL      0.836215
     13 O3          5.4100   -0.1900    1.6490 o         1 MOL     -0.738684
     14 O4          3.5880   -0.9350    0.4410 o         1 MOL     -0.738684
     15 H4          3.0960   -2.8440    4.6380 hn        1 MOL      0.331617
     16 H5          1.6790   -2.0100    2.1950 h1        1 MOL     -0.045426
     17 H6          4.4720   -1.8260    3.3740 hc        1 MOL      0.006237
     18 H7          3.1700   -0.5190    3.1160 hc        1 MOL      0.006237
     19 N2          2.4390   -3.8140    0.6750 n         1 MOL     -0.518683
     20 C7          2.7220   -4.9430   -0.2600 c3        1 MOL      0.158973
     21 C8          3.9120   -4.8540   -1.2840 c         1 MOL      0.300657
     22 O5          4.3380   -5.8030   -1.8780 o         1 MOL     -0.532126
     23 C9          1.4190   -5.3040   -0.9840 c3        1 MOL     -0.255778
     24 H8          1.7150   -3.1670    0.3910 hn        1 MOL      0.323992
     25 H9          3.0020   -5.7120    0.4580 h1        1 MOL      0.047988
     26 H10         1.4710   -6.3120   -1.3950 hc        1 MOL      0.081429
     27 H11         0.5060   -5.3420   -0.3890 hc        1 MOL      0.081429
     28 H12         1.1830   -4.6820   -1.8390 hc        1 MOL      0.081429
     29 N3          4.4060   -3.6740   -1.5890 n         1 MOL     -0.086471
     30 C10         5.4560   -3.3890   -2.6200 c3        1 MOL      0.009494
     31 C11         6.6730   -2.5960   -2.0660 c         1 MOL      0.429674
     32 O6          7.7460   -2.5250   -2.7350 o         1 MOL     -0.528033
     33 C12         4.8480   -2.7700   -3.8610 c3        1 MOL     -0.065557
     34 C13         3.6370   -1.7910   -3.6910 c         1 MOL      0.653917
     35 O7          3.6160   -1.0720   -2.6500 o         1 MOL     -0.683860
     36 O8          2.6640   -1.8890   -4.4550 o         1 MOL     -0.683860
     37 H13         3.9560   -2.8800   -1.1450 hn        1 MOL      0.204754
     38 H14         5.8900   -4.3650   -2.8500 h1        1 MOL      0.080163
     39 H15         4.3770   -3.5620   -4.4450 hc        1 MOL      0.011012
     40 H16         5.6420   -2.3140   -4.4550 hc        1 MOL      0.011012
     41 N4          6.5770   -2.2540   -0.7450 n         1 MOL     -0.215484
     42 C14         7.7100   -1.7160   -0.0010 c3        1 MOL     -0.272332
     43 C15         7.8760   -0.1970   -0.2480 c         1 MOL      0.614222
     44 O9          8.8440    0.3490    0.2380 o         1 MOL     -0.599609
     45 H17         5.8260   -2.5080   -0.1240 hn        1 MOL      0.166188
     46 H18         8.6080   -2.2190   -0.3750 h1        1 MOL      0.135274
     47 H19         7.5700   -1.9180    1.0590 h1        1 MOL      0.135274
     48 N5          6.9680    0.5400   -0.9280 n         1 MOL     -0.340515
     49 C16         7.0430    2.0240   -1.2690 c3        1 MOL      0.027066
     50 C17         6.7670    3.0300   -0.1270 c         1 MOL      0.425537
     51 O10         7.0250    4.2440   -0.3100 o         1 MOL     -0.572337
     52 C18         6.2500    2.2560   -2.5640 c3        1 MOL     -0.274957
     53 C19         4.7550    2.3120   -2.3440 c         1 MOL      0.631816
     54 N6          4.0070    2.7940   -3.2430 n         1 MOL     -0.788008
     55 O11         4.1720    1.9290   -1.3170 o         1 MOL     -0.521598
     56 H20         6.1270    0.0450   -1.1950 hn        1 MOL      0.152516
     57 H21         8.0970    2.2260   -1.4600 h1        1 MOL      0.095045
     58 H22         6.5260    1.5430   -3.3360 hc        1 MOL      0.102438
     59 H23         6.5710    3.2240   -2.9310 hc        1 MOL      0.102438
     60 H24         4.3970    3.2670   -4.0450 hn        1 MOL      0.371973
     61 H25         3.0510    2.9330   -2.9430 hn        1 MOL      0.371973
     62 N7          6.2540    2.5330    0.9660 n         1 MOL     -0.087260
     63 C20         5.9870    3.1280    2.2650 c3        1 MOL     -0.185648
     64 C21         4.7430    3.9850    2.3940 c         1 MOL      0.532302
     65 O12         4.5690    4.7980    3.2870 o         1 MOL     -0.575561
     66 H26         6.0410    1.5440    0.9080 hn        1 MOL      0.239766
     67 H27         6.8520    3.7030    2.6060 h1        1 MOL      0.093327
     68 H28         5.9540    2.2610    2.9280 h1        1 MOL      0.093327
     69 N8          3.8130    3.6640    1.5350 n         1 MOL     -0.087069
     70 C22         2.4400    4.1280    1.7660 c3        1 MOL     -0.309116
     71 C23         1.5150    2.9440    1.5250 c         1 MOL      0.825068
     72 O13         1.7730    2.1050    0.6690 o         1 MOL     -0.625145
     73 C24         2.0830    5.2710    0.7910 c3        1 MOL      0.323440
     74 C25         2.8880    6.5840    1.2170 c3        1 MOL     -0.435242
     75 O14         2.4040    4.9440   -0.5710 oh        1 MOL     -0.570743
     76 H29         4.0710    3.0040    0.8220 hn        1 MOL      0.057029
     77 H30         2.2430    4.4640    2.7820 h1        1 MOL      0.154159
     78 H31         1.0710    5.6600    0.7850 h1        1 MOL      0.040912
     79 H32         2.8090    5.7470   -0.8960 ho        1 MOL      0.387815
     80 H33         2.3960    7.3710    0.6560 hc        1 MOL      0.119509
     81 H34         2.8540    6.7440    2.2940 hc        1 MOL      0.119509
     82 H35         3.9400    6.5540    0.9110 hc        1 MOL      0.119509
     83 N9          0.3550    2.9310    2.2230 n         1 MOL     -0.735753
     84 C26        -0.7140    1.9740    1.8130 c3        1 MOL      0.141653
     85 C27        -1.7580    2.6630    0.9120 c         1 MOL      0.586333
     86 O15        -2.2390    3.7740    1.1650 o         1 MOL     -0.609389
     87 C28        -1.4700    1.2560    2.9710 c3        1 MOL      0.391932
     88 C29        -2.0200    2.2240    4.0210 c3        1 MOL     -0.095127
     89 C30        -0.4780    0.2150    3.5840 c3        1 MOL     -0.320272
     90 C31        -2.9750    1.5150    5.0520 c3        1 MOL     -0.227078
     91 H36         0.2250    3.6190    2.9430 hn        1 MOL      0.332546
     92 H37        -0.3080    1.1630    1.2050 h1        1 MOL     -0.020235
     93 H38        -2.2920    0.7040    2.5150 hc        1 MOL     -0.180056
     94 H39        -2.5650    2.9830    3.4510 hc        1 MOL      0.029129
     95 H40        -1.2040    2.7410    4.5150 hc        1 MOL      0.029129
     96 H41        -0.0140   -0.4020    2.8160 hc        1 MOL      0.082816
     97 H42         0.3590    0.7040    4.0930 hc        1 MOL      0.082816
     98 H43        -1.0210   -0.4030    4.2840 hc        1 MOL      0.082816
     99 H44        -3.4650    2.2070    5.7350 hc        1 MOL      0.052065
    100 H45        -3.7740    1.0050    4.5190 hc        1 MOL      0.052065
    101 H46        -2.4890    0.7510    5.6590 hc        1 MOL      0.052065
    102 N10        -2.1240    1.9420   -0.1430 n         1 MOL     -0.648008
    103 C32        -3.2600    2.2420   -1.0820 c3        1 MOL      0.484899
    104 C33        -4.4320    1.5610   -0.4670 c         1 MOL      0.314000
    105 O16        -4.3950    0.8950    0.5960 o         1 MOL     -0.364722
    106 C34        -2.8210    1.7100   -2.4710 c3        1 MOL     -0.474183
    107 C35        -3.6200    2.2270   -3.5910 c         1 MOL      0.739843
    108 O17        -3.2540    1.8660   -4.7690 o         1 MOL     -0.713119
    109 O18        -4.6170    2.9350   -3.3730 o         1 MOL     -0.713119
    110 H47        -1.7420    1.0360   -0.3390 hn        1 MOL      0.371640
    111 H48        -3.4780    3.3190   -1.1200 h1        1 MOL      0.018710
    112 H49        -2.8930    0.6220   -2.4810 hc        1 MOL      0.115139
    113 H50        -1.7670    1.9980   -2.5460 hc        1 MOL      0.115139
    114 N11        -5.5850    1.7190   -1.1360 n         1 MOL     -0.669934
    115 C36        -6.9210    1.3140   -0.6220 c3        1 MOL      0.710299
    116 C37        -7.0960   -0.2460   -0.5540 c         1 MOL      0.136544
    117 O19        -7.7170   -0.6550    0.4360 o         1 MOL     -0.479166
    118 C38        -8.0400    2.0280   -1.3330 c3        1 MOL     -0.383257
    119 C39        -9.4090    1.6110   -1.0710 ca        1 MOL      0.295398
    120 C40        -9.9430    1.8350    0.1930 ca        1 MOL     -0.286903
    121 C41       -10.3070    1.0350   -2.0460 ca        1 MOL     -0.286903
    122 C42       -11.2530    1.4150    0.5070 ca        1 MOL     -0.039784
    123 C43       -11.6280    0.5820   -1.7540 ca        1 MOL     -0.039784
    124 C44       -12.1200    0.8190   -0.4340 ca        1 MOL     -0.193921
    125 H51        -5.5340    2.2790   -1.9830 hn        1 MOL      0.299432
    126 H52        -6.9600    1.6760    0.4090 h1        1 MOL     -0.037367
    127 H53        -7.9130    1.8570   -2.3990 hc        1 MOL      0.085349
    128 H54        -7.9950    3.0730   -0.9900 hc        1 MOL      0.085349
    129 H55        -9.3240    2.3720    0.9090 ha        1 MOL      0.133395
    130 H56        -9.8670    0.8380   -3.0180 ha        1 MOL      0.133395
    131 H57       -11.5830    1.5470    1.5250 ha        1 MOL      0.096801
    132 H58       -12.2230    0.0730   -2.5050 ha        1 MOL      0.096801
    133 H59       -13.1380    0.5230   -0.2110 ha        1 MOL      0.110980
    134 N12        -6.5320   -1.0990   -1.4070 n         1 MOL     -0.013169
    135 C45        -6.6300   -2.5700   -1.1130 c3        1 MOL      0.143985
    136 C46        -5.7400   -3.0830    0.0710 c         1 MOL      0.230696
    137 O20        -6.1200   -3.8350    0.9960 o         1 MOL     -0.462275
    138 C47        -6.2650   -3.2590   -2.4690 c3        1 MOL      0.003067
    139 C48        -6.3690   -2.1430   -3.5100 c3        1 MOL     -0.202042
    140 C49        -5.9600   -0.9550   -2.7080 c3        1 MOL     -0.067826
    141 H60        -7.6730   -2.7830   -0.8530 h1        1 MOL      0.037506
    142 H61        -5.2290   -3.5850   -2.3630 hc        1 MOL      0.018649
    143 H62        -6.9340   -4.1060   -2.5780 hc        1 MOL      0.018649
    144 H63        -5.6530   -2.2520   -4.3150 hc        1 MOL      0.068543
    145 H64        -7.4030   -2.0690   -3.8580 hc        1 MOL      0.068543
    146 H65        -4.8750   -0.8760   -2.7210 h1        1 MOL      0.093978
    147 H66        -6.2810   -0.0450   -3.2210 h1        1 MOL      0.093978
    148 N13        -4.5110   -2.5600    0.1180 n         1 MOL     -0.189021
    149 C50        -3.6610   -2.6670    1.3220 c3        1 MOL     -0.026160
    150 C51        -4.2460   -2.2740    2.6730 c         1 MOL      0.377338
    151 O21        -4.1850   -3.0200    3.6190 o         1 MOL     -0.552357
    152 C52        -2.3460   -1.9220    1.1500 c3        1 MOL      0.045140
    153 C53        -1.6450   -2.2350   -0.1930 c3        1 MOL     -0.161575
    154 C54        -0.4290   -1.4370   -0.4730 c         1 MOL      0.960234
    155 O22        -0.5500   -0.2620   -0.6750 o         1 MOL     -0.857872
    156 O23         0.7260   -1.9420   -0.6270 o         1 MOL     -0.857872
    157 H67        -4.1670   -2.0330   -0.6690 hn        1 MOL      0.186152
    158 H68        -3.3240   -3.6990    1.4210 h1        1 MOL      0.077437
    159 H69        -1.7120   -2.0900    2.0190 hc        1 MOL      0.061944
    160 H70        -2.5490   -0.8600    1.2260 hc        1 MOL      0.061944
    161 H71        -2.3360   -2.0630   -1.0190 hc        1 MOL      0.016601
    162 H72        -1.3980   -3.2930   -0.1600 hc        1 MOL      0.016601
    163 N14        -4.9380   -1.1760    2.7250 n         1 MOL      0.123142
    164 C55        -5.8870   -0.7330    3.8160 c3        1 MOL     -0.198353
    165 H73        -5.8860    0.3560    3.8770 h1        1 MOL      0.081051
    166 H74        -6.8940   -1.0820    3.5870 h1        1 MOL      0.081051
    167 H75        -5.5650   -1.1500    4.7700 h1        1 MOL      0.081051
    168 H76        -4.9420   -0.6500    1.8660 hn        1 MOL     -0.021302
    169 Ca1         2.0550    0.3420   -1.2930 Ca        1 MOL      1.739305
    170 O24         1.3200    0.3110   -3.7620 oh        1 MOL     -0.854980
    171 H77         1.5320   -0.5320   -4.1650 ho        1 MOL      0.412620
    172 H78         0.5450    0.6070   -4.2400 ho        1 MOL      0.412620
    173 O25         1.3900    2.9030   -2.1400 oh        1 MOL     -0.854980
    174 H79         1.7010    3.5650   -1.5220 ho        1 MOL      0.412620
    175 H80         0.7030    3.3400   -2.6330 ho        1 MOL      0.412620
@<TRIPOS>BOND
     1    1    2 1   
     2    1    4 1   
     3    1    5 1   
     4    1    6 1   
     5    2    3 2   
     6    2    7 1   
     7    7    8 1   
     8    7   15 1   
     9    8    9 1   
    10    8   11 1   
    11    8   16 1   
    12    9   10 2   
    13    9   19 1   
    14   11   12 1   
    15   11   17 1   
    16   11   18 1   
    17   12   13 1   
    18   12   14 1   
    19   19   20 1   
    20   19   24 1   
    21   20   21 1   
    22   20   23 1   
    23   20   25 1   
    24   21   22 2   
    25   21   29 1   
    26   23   26 1   
    27   23   27 1   
    28   23   28 1   
    29   29   30 1   
    30   29   37 1   
    31   30   31 1   
    32   30   33 1   
    33   30   38 1   
    34   31   32 2   
    35   31   41 1   
    36   33   34 1   
    37   33   39 1   
    38   33   40 1   
    39   34   35 1   
    40   34   36 1   
    41   41   42 1   
    42   41   45 1   
    43   42   43 1   
    44   42   46 1   
    45   42   47 1   
    46   43   44 2   
    47   43   48 1   
    48   48   49 1   
    49   48   56 1   
    50   49   50 1   
    51   49   52 1   
    52   49   57 1   
    53   50   51 2   
    54   50   62 1   
    55   52   53 1   
    56   52   58 1   
    57   52   59 1   
    58   53   54 1   
    59   53   55 2   
    60   54   60 1   
    61   54   61 1   
    62   62   63 1   
    63   62   66 1   
    64   63   64 1   
    65   63   67 1   
    66   63   68 1   
    67   64   65 2   
    68   64   69 1   
    69   69   70 1   
    70   69   76 1   
    71   70   71 1   
    72   70   73 1   
    73   70   77 1   
    74   71   72 2   
    75   71   83 1   
    76   73   74 1   
    77   73   75 1   
    78   73   78 1   
    79   74   80 1   
    80   74   81 1   
    81   74   82 1   
    82   75   79 1   
    83   83   84 1   
    84   83   91 1   
    85   84   85 1   
    86   84   87 1   
    87   84   92 1   
    88   85   86 2   
    89   85  102 1   
    90   87   88 1   
    91   87   89 1   
    92   87   93 1   
    93   88   90 1   
    94   88   94 1   
    95   88   95 1   
    96   89   96 1   
    97   89   97 1   
    98   89   98 1   
    99   90   99 1   
   100   90  100 1   
   101   90  101 1   
   102  102  103 1   
   103  102  110 1   
   104  103  104 1   
   105  103  106 1   
   106  103  111 1   
   107  104  105 2   
   108  104  114 1   
   109  106  107 1   
   110  106  112 1   
   111  106  113 1   
   112  107  108 1   
   113  107  109 1   
   114  114  115 1   
   115  114  125 1   
   116  115  116 1   
   117  115  118 1   
   118  115  126 1   
   119  116  117 2   
   120  116  134 1   
   121  118  119 1   
   122  118  127 1   
   123  118  128 1   
   124  119  120 ar  
   125  119  121 ar  
   126  120  122 ar  
   127  120  129 1   
   128  121  123 ar  
   129  121  130 1   
   130  122  124 ar  
   131  122  131 1   
   132  123  124 ar  
   133  123  132 1   
   134  124  133 1   
   135  134  135 1   
   136  134  140 1   
   137  135  136 1   
   138  135  138 1   
   139  135  141 1   
   140  136  137 2   
   141  136  148 1   
   142  138  139 1   
   143  138  142 1   
   144  138  143 1   
   145  139  140 1   
   146  139  144 1   
   147  139  145 1   
   148  140  146 1   
   149  140  147 1   
   150  148  149 1   
   151  148  157 1   
   152  149  150 1   
   153  149  152 1   
   154  149  158 1   
   155  150  151 2   
   156  150  163 1   
   157  152  153 1   
   158  152  159 1   
   159  152  160 1   
   160  153  154 1   
   161  153  161 1   
   162  153  162 1   
   163  154  155 1   
   164  154  156 1   
   165  163  164 1   
   166  163  168 1   
   167  164  165 1   
   168  164  166 1   
   169  164  167 1   
   170  170  171 1   
   171  170  172 1   
   172  173  174 1   
   173  173  175 1   
@<TRIPOS>SUBSTRUCTURE
     1 MOL         1 TEMP              0 ****  ****    0 ROOT
