@<TRIPOS>MOLECULE
MOL
  176   174     1     0     0
SMALL
resp


@<TRIPOS>ATOM
      1 C1          0.1040   -3.2310    6.5230 c3        1 MOL     -0.283352
      2 C2          0.0210   -3.1370    5.0050 c         1 MOL      0.734837
      3 O1         -1.0600   -3.3610    4.4880 o         1 MOL     -0.573392
      4 H1         -0.7220   -2.6750    6.9670 hc        1 MOL      0.062818
      5 H2          0.0430   -4.2760    6.8260 hc        1 MOL      0.062818
      6 H3          1.0490   -2.8080    6.8640 hc        1 MOL      0.062818
      7 N1          1.1160   -2.7570    4.3980 n         1 MOL     -0.570244
      8 C3          1.1230   -2.6390    2.9580 c3        1 MOL      0.022697
      9 C4          0.9390   -4.0030    2.1690 c         1 MOL      0.559951
     10 O2          1.4960   -5.0390    2.6000 o         1 MOL     -0.540789
     11 C5          2.4510   -1.9200    2.6240 c3        1 MOL     -0.057167
     12 C6          2.5970   -1.4820    1.1380 c         1 MOL      0.934267
     13 O3          2.3450   -2.2870    0.2470 o         1 MOL     -0.832023
     14 O4          3.1100   -0.3800    0.8500 o         1 MOL     -0.832023
     15 H4          1.9060   -2.4790    4.9540 hn        1 MOL      0.348943
     16 H5          0.2430   -2.0740    2.6390 h1        1 MOL      0.017993
     17 H6          3.2680   -2.5650    2.9300 hc        1 MOL     -0.000489
     18 H7          2.4920   -1.0080    3.2150 hc        1 MOL     -0.000489
     19 N2          0.1510   -3.9760    1.0590 n         1 MOL     -0.411944
     20 C7         -0.3020   -5.1100    0.2920 c3        1 MOL      0.076690
     21 C8          0.7040   -5.5650   -0.8210 c         1 MOL      0.405985
     22 O5          0.4220   -6.5190   -1.6550 o         1 MOL     -0.521215
     23 C9         -1.6360   -4.8060   -0.3070 c3        1 MOL     -0.009497
     24 C10        -2.4910   -6.0850   -0.3310 c3        1 MOL     -0.383906
     25 C11        -3.8170   -5.9370   -1.0970 c3        1 MOL      0.023463
     26 C12        -4.5250   -7.2310   -1.3140 c3        1 MOL      0.045103
     27 N3         -5.6440   -6.9980   -2.2210 n4        1 MOL     -0.322021
     28 H8         -0.2340   -3.0550    0.9370 hn        1 MOL      0.308537
     29 H9         -0.2800   -5.9730    0.9610 h1        1 MOL      0.074264
     30 H10        -1.4560   -4.5270   -1.3410 hc        1 MOL      0.081748
     31 H11        -2.1250   -4.0450    0.3050 hc        1 MOL      0.081748
     32 H12        -2.9050   -6.2220    0.6620 hc        1 MOL      0.137529
     33 H13        -1.9640   -6.9500   -0.7340 hc        1 MOL      0.137529
     34 H14        -3.7080   -5.4500   -2.0620 hc        1 MOL      0.040486
     35 H15        -4.5600   -5.4540   -0.4730 hc        1 MOL      0.040486
     36 H16        -4.8300   -7.5410   -0.3170 hx        1 MOL      0.080501
     37 H17        -3.8350   -7.9560   -1.7470 hx        1 MOL      0.080501
     38 H18        -5.3680   -6.4030   -2.9930 hn        1 MOL      0.313985
     39 H19        -6.0440   -7.8050   -2.6800 hn        1 MOL      0.313985
     40 H20        -6.4630   -6.5640   -1.8120 hn        1 MOL      0.313985
     41 N4          1.9610   -4.9760   -0.8480 n         1 MOL     -0.283804
     42 C13         3.0800   -5.2230   -1.7930 c3        1 MOL     -0.000427
     43 C14         4.3970   -4.8360   -1.1190 c         1 MOL      0.449586
     44 O6          5.3730   -5.4710   -1.4490 o         1 MOL     -0.550846
     45 C15         2.8900   -4.4830   -3.0950 c3        1 MOL     -0.184394
     46 C16         2.5060   -3.0100   -2.9570 c         1 MOL      0.690724
     47 O7          1.3180   -2.5900   -3.0260 o         1 MOL     -0.701990
     48 O8          3.4210   -2.2160   -2.7890 o         1 MOL     -0.701990
     49 H21         2.1130   -4.3270   -0.0950 hn        1 MOL      0.110918
     50 H22         3.0880   -6.2790   -2.0800 h1        1 MOL      0.110365
     51 H23         2.1020   -4.9740   -3.6600 hc        1 MOL      0.063341
     52 H24         3.7430   -4.5890   -3.7650 hc        1 MOL      0.063341
     53 N5          4.4560   -3.8380   -0.2040 n         1 MOL     -0.166065
     54 C17         5.5750   -3.4990    0.6500 c3        1 MOL     -0.183650
     55 C18         6.2260   -2.1240    0.3800 c         1 MOL      0.423643
     56 O9          7.0770   -1.7240    1.2140 o         1 MOL     -0.556834
     57 H25         3.5410   -3.4340   -0.0840 hn        1 MOL      0.263131
     58 H26         6.3090   -4.2960    0.5690 h1        1 MOL      0.119285
     59 H27         5.2450   -3.5200    1.6800 h1        1 MOL      0.119285
     60 N6          5.7910   -1.3740   -0.6420 n         1 MOL     -0.146009
     61 C19         6.5450   -0.1600   -1.1370 c3        1 MOL     -0.026591
     62 C20         6.4790    0.9570   -0.1290 c         1 MOL      0.327679
     63 O10         7.1830    1.9210   -0.2780 o         1 MOL     -0.465596
     64 C21         6.1100    0.2960   -2.5270 c3        1 MOL     -0.132627
     65 C22         4.7410    0.9230   -2.5930 c         1 MOL      0.654965
     66 N7          4.6270    1.7820   -3.5890 n         1 MOL     -0.612557
     67 O11         3.8150    0.7250   -1.8380 o         1 MOL     -0.645988
     68 H28         5.0460   -1.7840   -1.1880 hn        1 MOL      0.127064
     69 H29         7.5860   -0.4410   -1.2830 h1        1 MOL      0.111555
     70 H30         6.1130   -0.4980   -3.2600 hc        1 MOL      0.069263
     71 H31         6.8380    1.0670   -2.7820 hc        1 MOL      0.069263
     72 H32         5.3950    1.7890   -4.2300 hn        1 MOL      0.301789
     73 H33         3.6980    2.0370   -3.9050 hn        1 MOL      0.301789
     74 N8          5.6710    0.8040    0.9660 n         1 MOL      0.025020
     75 C23         5.6290    1.7810    2.0410 c3        1 MOL     -0.428904
     76 C24         4.6110    2.9200    1.8760 c         1 MOL      0.714324
     77 O12         4.6740    3.8780    2.6210 o         1 MOL     -0.577959
     78 H34         5.0490    0.0080    0.9420 hn        1 MOL      0.169209
     79 H35         6.6410    2.1920    2.1120 h1        1 MOL      0.147218
     80 H36         5.4750    1.3180    3.0130 h1        1 MOL      0.147218
     81 N9          3.6520    2.7000    0.9870 n         1 MOL     -0.521960
     82 C25         2.6010    3.6600    0.5430 c3        1 MOL      0.345696
     83 C26         1.3030    2.8380    0.2060 c         1 MOL      0.541832
     84 O13         1.3180    1.8630   -0.5210 o         1 MOL     -0.673837
     85 C27         2.9740    4.2920   -0.8200 c3        1 MOL     -0.076818
     86 C28         4.0210    5.3740   -0.6180 ca        1 MOL     -0.028971
     87 C29         5.4020    5.1300   -0.9310 ca        1 MOL     -0.160824
     88 C30         3.6640    6.5740   -0.0750 ca        1 MOL     -0.160824
     89 C31         6.4010    6.1390   -0.8410 ca        1 MOL     -0.149357
     90 C32         4.6440    7.5560    0.0990 ca        1 MOL     -0.149357
     91 C33         5.9900    7.4050   -0.2880 ca        1 MOL      0.211069
     92 O14         6.9130    8.3790   -0.2280 oh        1 MOL     -0.433800
     93 H37         3.7290    1.8580    0.4450 hn        1 MOL      0.338896
     94 H38         2.3500    4.3770    1.3140 h1        1 MOL     -0.015832
     95 H39         2.0760    4.7520   -1.2220 hc        1 MOL      0.023512
     96 H40         3.3230    3.5000   -1.4860 hc        1 MOL      0.023512
     97 H41         5.7070    4.2750   -1.5060 ha        1 MOL      0.106151
     98 H42         2.6340    6.7970    0.1820 ha        1 MOL      0.106151
     99 H43         7.3800    6.0530   -1.2840 ha        1 MOL      0.117236
    100 H44         4.3200    8.4520    0.6040 ha        1 MOL      0.117236
    101 H45         6.6260    9.2570    0.0170 ho        1 MOL      0.347150
    102 N10         0.2320    3.2150    0.8500 n         1 MOL     -0.587644
    103 C34        -1.0560    2.5220    0.9340 c3        1 MOL      0.195397
    104 C35        -2.1460    3.5090    0.6890 c         1 MOL      0.371538
    105 O15        -2.3960    4.3960    1.4370 o         1 MOL     -0.481735
    106 C36        -1.2180    1.8960    2.2840 c3        1 MOL      0.021426
    107 C37        -0.0350    1.0760    2.7260 c3        1 MOL      0.430744
    108 C38        -2.5030    1.0460    2.3940 c3        1 MOL     -0.610301
    109 C39        -0.1410    0.4430    4.1330 c3        1 MOL     -0.372595
    110 H46         0.3860    3.9840    1.4930 hn        1 MOL      0.332788
    111 H47        -1.2100    1.7980    0.1330 h1        1 MOL      0.058189
    112 H48        -1.2280    2.7360    2.9780 hc        1 MOL     -0.005955
    113 H49         0.8780    1.6710    2.6760 hc        1 MOL     -0.112265
    114 H50         0.1400    0.3110    1.9630 hc        1 MOL     -0.112265
    115 H51        -3.2160    1.7330    1.9430 hc        1 MOL      0.183471
    116 H52        -2.4150    0.2060    1.7010 hc        1 MOL      0.183471
    117 H53        -2.7070    0.6950    3.4070 hc        1 MOL      0.183471
    118 H54         0.7470   -0.1330    4.3940 hc        1 MOL      0.079974
    119 H55        -0.3460    1.1440    4.9410 hc        1 MOL      0.079974
    120 H56        -0.9160   -0.3200    4.1800 hc        1 MOL      0.079974
    121 N11        -2.8140    3.4820   -0.4770 n         1 MOL     -0.217814
    122 C40        -4.0040    4.2710   -0.8400 c3        1 MOL     -0.160570
    123 C41        -5.2090    3.7730   -0.0080 c         1 MOL      0.498979
    124 O16        -5.2690    2.7910    0.6970 o         1 MOL     -0.321268
    125 C42        -4.1340    4.1230   -2.3500 c3        1 MOL     -0.046041
    126 O17        -4.3310    2.7530   -2.7210 oh        1 MOL     -0.522976
    127 H57        -2.3970    2.9010   -1.1970 hn        1 MOL      0.240608
    128 H58        -3.8960    5.2960   -0.4840 h1        1 MOL      0.118630
    129 H59        -3.2060    4.4770   -2.8010 h1        1 MOL      0.106813
    130 H60        -4.9950    4.6410   -2.7700 h1        1 MOL      0.106813
    131 H61        -3.4830    2.2950   -2.7080 ho        1 MOL      0.376659
    132 N12        -6.3070    4.5160   -0.0660 n         1 MOL     -0.416902
    133 C43        -7.6100    4.1900    0.6110 c3        1 MOL      0.028033
    134 C44        -8.1960    2.8430    0.0520 c         1 MOL      0.460604
    135 O18        -8.7460    2.0300    0.8340 o         1 MOL     -0.504979
    136 C45        -8.5000    5.4290    0.3610 c3        1 MOL     -0.239651
    137 H62        -6.3460    5.3110   -0.6930 hn        1 MOL      0.265251
    138 H63        -7.4070    3.9610    1.6600 h1        1 MOL      0.112760
    139 H64        -9.4000    5.5230    0.9760 hc        1 MOL      0.085723
    140 H65        -7.8710    6.2890    0.5680 hc        1 MOL      0.085723
    141 H66        -8.7890    5.5380   -0.6830 hc        1 MOL      0.085723
    142 N13        -7.9300    2.5100   -1.2270 n         1 MOL     -0.392315
    143 C46        -8.2420    1.1930   -1.8840 c3        1 MOL      0.108280
    144 C47        -7.4270   -0.0330   -1.4090 c         1 MOL      0.454077
    145 O19        -7.9140   -1.1300   -1.4560 o         1 MOL     -0.523952
    146 C48        -8.4960    1.2510   -3.3860 c3        1 MOL     -0.225517
    147 H67        -7.5730    3.1810   -1.8840 hn        1 MOL      0.296775
    148 H68        -9.2360    0.9780   -1.4880 h1        1 MOL      0.080150
    149 H69        -8.7640    0.2700   -3.7720 hc        1 MOL      0.069277
    150 H70        -9.2660    2.0050   -3.5500 hc        1 MOL      0.069277
    151 H71        -7.6030    1.5560   -3.9350 hc        1 MOL      0.069277
    152 N14        -6.2000    0.2660   -0.9550 n         1 MOL     -0.267350
    153 C49        -5.2600   -0.6920   -0.3330 c3        1 MOL      0.050166
    154 C50        -5.3280   -0.7800    1.1740 c         1 MOL      0.414313
    155 O20        -5.0140   -1.8550    1.7350 o         1 MOL     -0.522345
    156 C51        -3.8460   -0.2790   -0.7310 c3        1 MOL      0.227921
    157 C52        -2.8160   -1.4160   -0.5580 c3        1 MOL     -0.073386
    158 C53        -1.3380   -1.1100   -0.8080 c         1 MOL      0.644132
    159 O21        -1.0130   -0.5860   -1.8640 o         1 MOL     -0.729583
    160 O22        -0.4920   -1.2570    0.0670 o         1 MOL     -0.729583
    161 H72        -5.9840    1.2530   -0.9040 hn        1 MOL      0.068377
    162 H73        -5.5230   -1.6530   -0.7690 h1        1 MOL      0.032317
    163 H74        -3.5400    0.6110   -0.1740 hc        1 MOL     -0.069069
    164 H75        -3.8460   -0.0340   -1.7990 hc        1 MOL     -0.069069
    165 H76        -3.1210   -2.2900   -1.1320 hc        1 MOL     -0.007571
    166 H77        -2.8480   -1.7660    0.4720 hc        1 MOL     -0.007571
    167 N15        -5.8650    0.2220    1.8890 n         1 MOL     -0.173717
    168 C54        -6.0110    0.1980    3.3150 c3        1 MOL     -0.207252
    169 H78        -6.8750    0.7970    3.6010 h1        1 MOL      0.095123
    170 H79        -6.1550   -0.8290    3.6480 h1        1 MOL      0.095123
    171 H80        -5.1150    0.6090    3.7790 h1        1 MOL      0.095123
    172 H81        -5.8850    1.1290    1.4530 hn        1 MOL      0.170756
    173 Ca1         1.6810   -0.5430   -1.4860 Ca        1 MOL      1.784980
    174 O23         1.2490    0.4110   -3.8400 oh        1 MOL     -0.911681
    175 H82         1.4610    1.2960   -4.1530 ho        1 MOL      0.439510
    176 H83         0.5420    0.1190   -4.4110 ho        1 MOL      0.439510
@<TRIPOS>BOND
     1    1    2 1   
     2    1    4 1   
     3    1    5 1   
     4    1    6 1   
     5    2    3 2   
     6    2    7 1   
     7    7    8 1   
     8    7   15 1   
     9    8    9 1   
    10    8   11 1   
    11    8   16 1   
    12    9   10 2   
    13    9   19 1   
    14   11   12 1   
    15   11   17 1   
    16   11   18 1   
    17   12   13 1   
    18   12   14 1   
    19   19   20 1   
    20   19   28 1   
    21   20   21 1   
    22   20   23 1   
    23   20   29 1   
    24   21   22 2   
    25   21   41 1   
    26   23   24 1   
    27   23   30 1   
    28   23   31 1   
    29   24   25 1   
    30   24   32 1   
    31   24   33 1   
    32   25   26 1   
    33   25   34 1   
    34   25   35 1   
    35   26   27 1   
    36   26   36 1   
    37   26   37 1   
    38   27   38 1   
    39   27   39 1   
    40   27   40 1   
    41   41   42 1   
    42   41   49 1   
    43   42   43 1   
    44   42   45 1   
    45   42   50 1   
    46   43   44 2   
    47   43   53 1   
    48   45   46 1   
    49   45   51 1   
    50   45   52 1   
    51   46   47 1   
    52   46   48 1   
    53   53   54 1   
    54   53   57 1   
    55   54   55 1   
    56   54   58 1   
    57   54   59 1   
    58   55   56 2   
    59   55   60 1   
    60   60   61 1   
    61   60   68 1   
    62   61   62 1   
    63   61   64 1   
    64   61   69 1   
    65   62   63 2   
    66   62   74 1   
    67   64   65 1   
    68   64   70 1   
    69   64   71 1   
    70   65   66 1   
    71   65   67 2   
    72   66   72 1   
    73   66   73 1   
    74   74   75 1   
    75   74   78 1   
    76   75   76 1   
    77   75   79 1   
    78   75   80 1   
    79   76   77 2   
    80   76   81 1   
    81   81   82 1   
    82   81   93 1   
    83   82   83 1   
    84   82   85 1   
    85   82   94 1   
    86   83   84 2   
    87   83  102 1   
    88   85   86 1   
    89   85   95 1   
    90   85   96 1   
    91   86   87 ar  
    92   86   88 ar  
    93   87   89 ar  
    94   87   97 1   
    95   88   90 ar  
    96   88   98 1   
    97   89   91 ar  
    98   89   99 1   
    99   90   91 ar  
   100   90  100 1   
   101   91   92 1   
   102   92  101 1   
   103  102  103 1   
   104  102  110 1   
   105  103  104 1   
   106  103  106 1   
   107  103  111 1   
   108  104  105 2   
   109  104  121 1   
   110  106  107 1   
   111  106  108 1   
   112  106  112 1   
   113  107  109 1   
   114  107  113 1   
   115  107  114 1   
   116  108  115 1   
   117  108  116 1   
   118  108  117 1   
   119  109  118 1   
   120  109  119 1   
   121  109  120 1   
   122  121  122 1   
   123  121  127 1   
   124  122  123 1   
   125  122  125 1   
   126  122  128 1   
   127  123  124 2   
   128  123  132 1   
   129  125  126 1   
   130  125  129 1   
   131  125  130 1   
   132  126  131 1   
   133  132  133 1   
   134  132  137 1   
   135  133  134 1   
   136  133  136 1   
   137  133  138 1   
   138  134  135 2   
   139  134  142 1   
   140  136  139 1   
   141  136  140 1   
   142  136  141 1   
   143  142  143 1   
   144  142  147 1   
   145  143  144 1   
   146  143  146 1   
   147  143  148 1   
   148  144  145 2   
   149  144  152 1   
   150  146  149 1   
   151  146  150 1   
   152  146  151 1   
   153  152  153 1   
   154  152  161 1   
   155  153  154 1   
   156  153  156 1   
   157  153  162 1   
   158  154  155 2   
   159  154  167 1   
   160  156  157 1   
   161  156  163 1   
   162  156  164 1   
   163  157  158 1   
   164  157  165 1   
   165  157  166 1   
   166  158  159 1   
   167  158  160 1   
   168  167  168 1   
   169  167  172 1   
   170  168  169 1   
   171  168  170 1   
   172  168  171 1   
   173  174  175 1   
   174  174  176 1   
@<TRIPOS>SUBSTRUCTURE
     1 MOL         1 TEMP              0 ****  ****    0 ROOT
