@<TRIPOS>MOLECULE
MOL
  175   173     1     0     0
SMALL
resp


@<TRIPOS>ATOM
      1 C1          0.6960    4.6020    5.1480 c3        1 MOL     -0.349615
      2 C2         -0.0180    4.5640    3.7620 c         1 MOL      0.699975
      3 O1          0.5750    5.0480    2.7910 o         1 MOL     -0.522847
      4 H1          0.2020    5.3320    5.7900 hc        1 MOL      0.082699
      5 H2          0.6440    3.6170    5.6120 hc        1 MOL      0.082699
      6 H3          1.7400    4.8860    5.0130 hc        1 MOL      0.082699
      7 N1         -1.2470    4.0130    3.7060 n         1 MOL     -0.679575
      8 C3         -2.0550    3.6050    2.5100 c3        1 MOL      0.360820
      9 C4         -2.2070    4.7460    1.5300 c         1 MOL      0.540805
     10 O2         -2.2570    5.9250    1.9340 o         1 MOL     -0.556791
     11 C5         -3.3430    2.8980    2.8800 c3        1 MOL     -0.409654
     12 C6         -4.0930    2.5000    1.6100 c         1 MOL      0.648119
     13 O3         -5.3450    2.7410    1.5580 o         1 MOL     -0.605178
     14 O4         -3.3950    2.0460    0.6810 o         1 MOL     -0.605178
     15 H4         -1.5630    3.7500    4.6300 hn        1 MOL      0.308337
     16 H5         -1.4260    2.9340    1.9150 h1        1 MOL     -0.025838
     17 H6         -3.9260    3.6190    3.4360 hc        1 MOL      0.082340
     18 H7         -3.1150    1.9940    3.4540 hc        1 MOL      0.082340
     19 N2         -2.0820    4.4040    0.1850 n         1 MOL     -0.602669
     20 C7         -2.0490    5.2850   -0.9390 c3        1 MOL      0.364752
     21 C8         -3.1920    4.8910   -1.8620 c         1 MOL      0.379459
     22 O5         -3.3520    5.5810   -2.8790 o         1 MOL     -0.570848
     23 C9         -0.6790    5.2970   -1.6680 c3        1 MOL     -0.296859
     24 H8         -1.8730    3.4170    0.0860 hn        1 MOL      0.426084
     25 H9         -2.1500    6.2970   -0.5460 h1        1 MOL      0.020451
     26 H10         0.1010    5.5450   -0.9500 hc        1 MOL      0.074443
     27 H11        -0.5500    4.3890   -2.2570 hc        1 MOL      0.074443
     28 H12        -0.6120    6.1930   -2.2900 hc        1 MOL      0.074443
     29 N3         -4.0340    3.8880   -1.5370 n         1 MOL     -0.379083
     30 C10        -4.8790    3.2920   -2.5600 c3        1 MOL      0.241903
     31 C11        -6.1130    2.4690   -2.1990 c         1 MOL      0.305424
     32 O6         -7.1130    2.3150   -2.9160 o         1 MOL     -0.553900
     33 C12        -4.0650    2.4570   -3.5340 c3        1 MOL     -0.246357
     34 C13        -3.3360    1.3300   -2.7900 c         1 MOL      0.677079
     35 O7         -2.0570    1.2110   -2.8950 o         1 MOL     -0.683392
     36 O8         -3.8960    0.6170   -1.9680 o         1 MOL     -0.683392
     37 H13        -3.7740    3.4620   -0.6510 hn        1 MOL      0.209362
     38 H14        -5.3400    4.1090   -3.1010 h1        1 MOL      0.055681
     39 H15        -3.3330    3.0640   -4.0740 hc        1 MOL      0.060606
     40 H16        -4.7670    2.0650   -4.2840 hc        1 MOL      0.060606
     41 N4         -6.2020    2.1160   -0.9140 n         1 MOL     -0.103611
     42 C14        -7.3270    1.3130   -0.4120 c3        1 MOL     -0.111289
     43 C15        -7.4080   -0.1310   -0.7940 c         1 MOL      0.444671
     44 O9         -8.4380   -0.7830   -0.6310 o         1 MOL     -0.609108
     45 H17        -5.3820    2.2040   -0.3240 hn        1 MOL      0.021170
     46 H18        -8.3370    1.6980   -0.5700 h1        1 MOL      0.092833
     47 H19        -7.3010    1.4530    0.6570 h1        1 MOL      0.092833
     48 N5         -6.3230   -0.7120   -1.3170 n         1 MOL     -0.104097
     49 C16        -6.3260   -2.1310   -1.7760 c3        1 MOL     -0.263667
     50 C17        -6.2670   -3.2410   -0.7610 c         1 MOL      0.514714
     51 O10        -6.3290   -4.4260   -1.1090 o         1 MOL     -0.531782
     52 C18        -5.2600   -2.4090   -2.8530 c3        1 MOL     -0.049888
     53 C19        -3.8390   -2.4700   -2.3330 c         1 MOL      0.604327
     54 N6         -2.8840   -2.7000   -3.2540 n         1 MOL     -0.718854
     55 O11        -3.5840   -2.2350   -1.1580 o         1 MOL     -0.547006
     56 H20        -5.4550   -0.2580   -1.5820 hn        1 MOL      0.222535
     57 H21        -7.2680   -2.2810   -2.3010 h1        1 MOL      0.161689
     58 H22        -5.2180   -1.7960   -3.7500 hc        1 MOL      0.035523
     59 H23        -5.4700   -3.4100   -3.2230 hc        1 MOL      0.035523
     60 H24        -3.1340   -2.7640   -4.2290 hn        1 MOL      0.346551
     61 H25        -1.9770   -2.3580   -2.9670 hn        1 MOL      0.346551
     62 N7         -6.3180   -2.9290    0.5530 n         1 MOL     -0.239912
     63 C20        -6.1950   -3.7850    1.7380 c3        1 MOL     -0.322216
     64 C21        -4.7650   -4.3230    2.0540 c         1 MOL      0.550577
     65 O12        -4.7330   -5.1790    2.9740 o         1 MOL     -0.574695
     66 H26        -6.4300   -1.9700    0.8470 hn        1 MOL      0.254972
     67 H27        -6.7980   -4.6880    1.6400 h1        1 MOL      0.140865
     68 H28        -6.5480   -3.1800    2.5700 h1        1 MOL      0.140865
     69 N8         -3.6840   -3.9260    1.3160 n         1 MOL     -0.402414
     70 C22        -2.3050   -4.4790    1.4730 c3        1 MOL     -0.001852
     71 C23        -1.2830   -3.3420    1.5220 c         1 MOL      0.348156
     72 O13        -1.4870   -2.3210    0.8350 o         1 MOL     -0.423633
     73 C24        -2.1090   -5.4340    0.2800 c3        1 MOL      0.535232
     74 C25        -3.2050   -6.4840    0.1390 c3        1 MOL     -0.358388
     75 O14        -2.0660   -4.8600   -0.9770 oh        1 MOL     -0.630350
     76 H29        -3.8980   -3.3340    0.5210 hn        1 MOL      0.337175
     77 H30        -2.1720   -5.1740    2.2920 h1        1 MOL      0.037246
     78 H31        -1.1720   -5.9750    0.4120 h1        1 MOL     -0.075145
     79 H32        -1.4340   -4.1380   -1.0000 ho        1 MOL      0.377135
     80 H33        -3.4180   -6.9380    1.1160 hc        1 MOL      0.086426
     81 H34        -4.1160   -6.0820   -0.3030 hc        1 MOL      0.086426
     82 H35        -2.8450   -7.3390   -0.4280 hc        1 MOL      0.086426
     83 N9         -0.0970   -3.5320    2.0700 n         1 MOL     -0.289343
     84 C26         1.0000   -2.5240    2.0100 c3        1 MOL     -0.467216
     85 C27         1.7480   -2.9380    0.8010 c         1 MOL      0.558331
     86 O15         2.0610   -4.0710    0.5350 o         1 MOL     -0.603078
     87 C28         2.0450   -2.6670    3.2040 c3        1 MOL      0.350647
     88 C29         1.2350   -2.9310    4.5310 c3        1 MOL     -0.016647
     89 C30         2.8410   -1.3720    3.2560 c3        1 MOL     -0.424382
     90 C31         2.0770   -3.2420    5.7650 c3        1 MOL     -0.088415
     91 H36         0.1330   -4.4190    2.4860 hn        1 MOL      0.269447
     92 H37         0.7150   -1.4760    1.8540 h1        1 MOL      0.199192
     93 H38         2.7530   -3.4780    3.0050 hc        1 MOL     -0.021559
     94 H39         0.4700   -3.6990    4.3990 hc        1 MOL      0.016096
     95 H40         0.7020   -2.0200    4.8180 hc        1 MOL      0.016096
     96 H41         3.2930   -1.1300    2.3030 hc        1 MOL      0.085251
     97 H42         2.2210   -0.5180    3.5300 hc        1 MOL      0.085251
     98 H43         3.6530   -1.6160    3.9450 hc        1 MOL      0.085251
     99 H44         2.4480   -4.2680    5.7260 hc        1 MOL      0.009736
    100 H45         2.9730   -2.6310    5.8750 hc        1 MOL      0.009736
    101 H46         1.3600   -3.1890    6.5910 hc        1 MOL      0.009736
    102 N10         1.7330   -1.9900   -0.0530 n         1 MOL     -0.108320
    103 C32         2.5440   -1.9880   -1.2590 c3        1 MOL     -0.006649
    104 C33         3.9630   -1.4980   -0.8830 c         1 MOL      0.377036
    105 O16         4.1900   -0.7950    0.1290 o         1 MOL     -0.335741
    106 C34         1.8900   -1.3070   -2.4040 c3        1 MOL     -0.138674
    107 C35         0.4020   -1.6720   -2.5780 c         1 MOL      0.557434
    108 O17         0.0650   -2.0560   -3.7710 o         1 MOL     -0.625359
    109 O18        -0.4380   -1.4000   -1.6520 o         1 MOL     -0.625359
    110 H47         1.2940   -1.1100    0.1990 hn        1 MOL      0.210035
    111 H48         2.6420   -3.0330   -1.5470 h1        1 MOL      0.060355
    112 H49         2.4860   -1.4360   -3.3110 hc        1 MOL      0.056103
    113 H50         1.9420   -0.2570   -2.1280 hc        1 MOL      0.056103
    114 N11         4.9310   -1.8090   -1.6640 n         1 MOL     -0.514796
    115 C36         6.3390   -1.5250   -1.3540 c3        1 MOL      0.255525
    116 C37         6.6560    0.0050   -1.2000 c         1 MOL      0.210974
    117 O19         7.4700    0.3690   -0.3870 o         1 MOL     -0.437119
    118 C38         7.2280   -2.1440   -2.4680 c3        1 MOL     -0.073767
    119 C39         8.6690   -2.1550   -2.0180 ca        1 MOL      0.007650
    120 C40         9.5040   -1.0820   -2.4490 ca        1 MOL     -0.192289
    121 C41         9.1740   -3.0380   -1.0150 ca        1 MOL     -0.192289
    122 C42        10.8230   -0.9340   -1.8780 ca        1 MOL     -0.006591
    123 C43        10.5230   -2.9240   -0.5410 ca        1 MOL     -0.006591
    124 C44        11.3740   -1.9090   -0.9820 ca        1 MOL     -0.241031
    125 H51         4.7800   -2.4040   -2.4670 hn        1 MOL      0.302840
    126 H52         6.5860   -2.0210   -0.4090 h1        1 MOL      0.065575
    127 H53         7.0260   -1.6840   -3.4330 hc        1 MOL      0.045352
    128 H54         6.8720   -3.1560   -2.6390 hc        1 MOL      0.045352
    129 H55         9.1460   -0.4650   -3.2580 ha        1 MOL      0.123220
    130 H56         8.5830   -3.8880   -0.6890 ha        1 MOL      0.123220
    131 H57        11.3560   -0.0540   -2.1900 ha        1 MOL      0.087715
    132 H58        10.8900   -3.7300    0.0920 ha        1 MOL      0.087715
    133 H59        12.3380   -1.7910   -0.5010 ha        1 MOL      0.142626
    134 N12         6.1160    0.9520   -1.9720 n         1 MOL      0.086127
    135 C45         6.2800    2.3330   -1.7280 c3        1 MOL      0.088626
    136 C46         5.7200    2.7040   -0.3720 c         1 MOL      0.199747
    137 O20         6.3230    3.5490    0.3350 o         1 MOL     -0.494327
    138 C47         5.5240    3.1180   -2.7910 c3        1 MOL     -0.119230
    139 C48         5.6830    2.1220   -3.9020 c3        1 MOL      0.093020
    140 C49         5.4690    0.7590   -3.2870 c3        1 MOL     -0.099868
    141 H60         7.3420    2.5510   -1.7170 h1        1 MOL      0.037791
    142 H61         4.4730    3.1050   -2.5260 hc        1 MOL      0.062500
    143 H62         5.9190    4.1040   -2.9990 hc        1 MOL      0.062500
    144 H63         5.0290    2.2790   -4.7550 hc        1 MOL     -0.012962
    145 H64         6.7100    2.1810   -4.2510 hc        1 MOL     -0.012962
    146 H65         4.4120    0.5330   -3.1630 h1        1 MOL      0.042303
    147 H66         6.0200    0.0460   -3.9090 h1        1 MOL      0.042303
    148 N13         4.6730    2.0590    0.1280 n         1 MOL     -0.010058
    149 C50         3.9950    2.4930    1.4350 c3        1 MOL     -0.049013
    150 C51         4.7750    2.0020    2.6580 c         1 MOL      0.357333
    151 O21         4.9820    2.6550    3.6900 o         1 MOL     -0.530591
    152 C52         2.5670    1.8360    1.4310 c3        1 MOL     -0.043869
    153 C53         1.5880    2.4180    0.4790 c3        1 MOL      0.118316
    154 C54         0.2880    1.6130    0.4350 c         1 MOL      0.566146
    155 O22        -0.4820    1.9420   -0.4770 o         1 MOL     -0.667023
    156 O23        -0.0050    0.6470    1.1260 o         1 MOL     -0.667023
    157 H67         4.3700    1.1750   -0.2770 hn        1 MOL      0.075608
    158 H68         3.9180    3.5680    1.5630 h1        1 MOL      0.100208
    159 H69         2.1300    1.7450    2.4270 hc        1 MOL      0.016226
    160 H70         2.7650    0.8680    0.9530 hc        1 MOL      0.016226
    161 H71         2.0390    2.5350   -0.5020 hc        1 MOL     -0.037309
    162 H72         1.3480    3.4150    0.8390 hc        1 MOL     -0.037309
    163 N14         5.3760    0.8330    2.4730 n         1 MOL      0.016971
    164 C55         6.3900    0.2430    3.3440 c3        1 MOL     -0.171999
    165 H73         6.2840    0.6490    4.3510 h1        1 MOL      0.065117
    166 H74         6.2590   -0.8390    3.3740 h1        1 MOL      0.065117
    167 H75         7.3820    0.4790    2.9600 h1        1 MOL      0.065117
    168 H76         5.1640    0.2650    1.6620 hn        1 MOL      0.063781
    169 Ca1        -2.1680   -0.0820   -0.2050 Ca        1 MOL      1.620097
    170 O24        -1.8170   -0.0290    2.8060 oh        1 MOL     -0.775716
    171 H77        -1.8540    0.3050    3.7070 ho        1 MOL      0.373125
    172 H78        -0.9980    0.3220    2.4650 ho        1 MOL      0.373125
    173 O25        -4.4470   -0.8350    1.4350 oh        1 MOL     -0.775716
    174 H79        -3.8920   -0.8570    2.2140 ho        1 MOL      0.373125
    175 H80        -5.2790   -0.4760    1.7400 ho        1 MOL      0.373125
@<TRIPOS>BOND
     1    1    2 1   
     2    1    4 1   
     3    1    5 1   
     4    1    6 1   
     5    2    3 2   
     6    2    7 1   
     7    7    8 1   
     8    7   15 1   
     9    8    9 1   
    10    8   11 1   
    11    8   16 1   
    12    9   10 2   
    13    9   19 1   
    14   11   12 1   
    15   11   17 1   
    16   11   18 1   
    17   12   13 1   
    18   12   14 1   
    19   19   20 1   
    20   19   24 1   
    21   20   21 1   
    22   20   23 1   
    23   20   25 1   
    24   21   22 2   
    25   21   29 1   
    26   23   26 1   
    27   23   27 1   
    28   23   28 1   
    29   29   30 1   
    30   29   37 1   
    31   30   31 1   
    32   30   33 1   
    33   30   38 1   
    34   31   32 2   
    35   31   41 1   
    36   33   34 1   
    37   33   39 1   
    38   33   40 1   
    39   34   35 1   
    40   34   36 1   
    41   41   42 1   
    42   41   45 1   
    43   42   43 1   
    44   42   46 1   
    45   42   47 1   
    46   43   44 2   
    47   43   48 1   
    48   48   49 1   
    49   48   56 1   
    50   49   50 1   
    51   49   52 1   
    52   49   57 1   
    53   50   51 2   
    54   50   62 1   
    55   52   53 1   
    56   52   58 1   
    57   52   59 1   
    58   53   54 1   
    59   53   55 2   
    60   54   60 1   
    61   54   61 1   
    62   62   63 1   
    63   62   66 1   
    64   63   64 1   
    65   63   67 1   
    66   63   68 1   
    67   64   65 2   
    68   64   69 1   
    69   69   70 1   
    70   69   76 1   
    71   70   71 1   
    72   70   73 1   
    73   70   77 1   
    74   71   72 2   
    75   71   83 1   
    76   73   74 1   
    77   73   75 1   
    78   73   78 1   
    79   74   80 1   
    80   74   81 1   
    81   74   82 1   
    82   75   79 1   
    83   83   84 1   
    84   83   91 1   
    85   84   85 1   
    86   84   87 1   
    87   84   92 1   
    88   85   86 2   
    89   85  102 1   
    90   87   88 1   
    91   87   89 1   
    92   87   93 1   
    93   88   90 1   
    94   88   94 1   
    95   88   95 1   
    96   89   96 1   
    97   89   97 1   
    98   89   98 1   
    99   90   99 1   
   100   90  100 1   
   101   90  101 1   
   102  102  103 1   
   103  102  110 1   
   104  103  104 1   
   105  103  106 1   
   106  103  111 1   
   107  104  105 2   
   108  104  114 1   
   109  106  107 1   
   110  106  112 1   
   111  106  113 1   
   112  107  108 1   
   113  107  109 1   
   114  114  115 1   
   115  114  125 1   
   116  115  116 1   
   117  115  118 1   
   118  115  126 1   
   119  116  117 2   
   120  116  134 1   
   121  118  119 1   
   122  118  127 1   
   123  118  128 1   
   124  119  120 ar  
   125  119  121 ar  
   126  120  122 ar  
   127  120  129 1   
   128  121  123 ar  
   129  121  130 1   
   130  122  124 ar  
   131  122  131 1   
   132  123  124 ar  
   133  123  132 1   
   134  124  133 1   
   135  134  135 1   
   136  134  140 1   
   137  135  136 1   
   138  135  138 1   
   139  135  141 1   
   140  136  137 2   
   141  136  148 1   
   142  138  139 1   
   143  138  142 1   
   144  138  143 1   
   145  139  140 1   
   146  139  144 1   
   147  139  145 1   
   148  140  146 1   
   149  140  147 1   
   150  148  149 1   
   151  148  157 1   
   152  149  150 1   
   153  149  152 1   
   154  149  158 1   
   155  150  151 2   
   156  150  163 1   
   157  152  153 1   
   158  152  159 1   
   159  152  160 1   
   160  153  154 1   
   161  153  161 1   
   162  153  162 1   
   163  154  155 1   
   164  154  156 1   
   165  163  164 1   
   166  163  168 1   
   167  164  165 1   
   168  164  166 1   
   169  164  167 1   
   170  170  171 1   
   171  170  172 1   
   172  173  174 1   
   173  173  175 1   
@<TRIPOS>SUBSTRUCTURE
     1 MOL         1 TEMP              0 ****  ****    0 ROOT
