@<TRIPOS>MOLECULE
MOL
  183   181     1     0     0
SMALL
resp


@<TRIPOS>ATOM
      1 C1         -0.6340    1.2140    6.4180 c3        1 MOL     -0.330721
      2 C2         -0.9920    1.3080    4.9040 c         1 MOL      0.737205
      3 O1         -0.1380    1.7140    4.0890 o         1 MOL     -0.593936
      4 H1         -1.5000    0.8510    6.9740 hc        1 MOL      0.076879
      5 H2          0.1990    0.5240    6.5540 hc        1 MOL      0.076879
      6 H3         -0.3540    2.2010    6.7880 hc        1 MOL      0.076879
      7 N1         -2.2610    1.1400    4.5090 n         1 MOL     -0.603446
      8 C3         -2.7110    1.1410    3.1370 c3        1 MOL      0.251828
      9 C4         -3.0990    2.5110    2.5450 c         1 MOL      0.470043
     10 O2         -4.1700    2.9870    2.9820 o         1 MOL     -0.574498
     11 C5         -3.8380    0.0960    2.8760 c3        1 MOL     -0.446135
     12 C6         -4.4430    0.1350    1.5590 c         1 MOL      0.924044
     13 O3         -5.5750   -0.3250    1.3770 o         1 MOL     -0.681637
     14 O4         -3.8340    0.4800    0.5400 o         1 MOL     -0.681637
     15 H4         -2.9130    0.6980    5.1410 hn        1 MOL      0.316739
     16 H5         -1.8780    0.7930    2.5250 h1        1 MOL      0.042181
     17 H6         -4.5110    0.2630    3.7170 hc        1 MOL      0.096521
     18 H7         -3.5100   -0.9380    2.9810 hc        1 MOL      0.096521
     19 N2         -2.4190    3.1630    1.6540 n         1 MOL     -0.299365
     20 C7         -2.8620    4.5240    1.1700 c3        1 MOL      0.016817
     21 C8         -4.2640    4.5090    0.5060 c         1 MOL      0.418884
     22 O5         -4.9540    5.5350    0.5560 o         1 MOL     -0.547283
     23 C9         -1.9400    5.0170    0.0820 c3        1 MOL      0.293723
     24 C10        -0.7980    5.8740    0.6640 c3        1 MOL      0.044967
     25 C11        -2.4650    5.9600   -0.9780 c3        1 MOL     -0.330823
     26 C12         0.0650    5.2300    1.7330 c3        1 MOL      0.110102
     27 H8         -1.5750    2.7280    1.3090 hn        1 MOL      0.153753
     28 H9         -2.9560    5.2350    1.9820 h1        1 MOL      0.067343
     29 H10        -1.4790    4.1680   -0.4300 hc        1 MOL      0.018237
     30 H11        -1.3780    6.7020    1.0900 hc        1 MOL     -0.065944
     31 H12        -0.1380    6.2720   -0.0990 hc        1 MOL     -0.065944
     32 H13        -3.2420    5.4120   -1.5100 hc        1 MOL      0.079464
     33 H14        -2.9180    6.8560   -0.5640 hc        1 MOL      0.079464
     34 H15        -1.6950    6.2540   -1.6820 hc        1 MOL      0.079464
     35 H16         0.6230    4.3960    1.3160 hc        1 MOL     -0.035797
     36 H17         0.7240    5.9550    2.1980 hc        1 MOL     -0.035797
     37 H18        -0.5020    4.9880    2.6290 hc        1 MOL     -0.035797
     38 N3         -4.6960    3.3750   -0.1090 n         1 MOL     -0.297758
     39 C13        -5.7260    3.3000   -1.1600 c3        1 MOL     -0.071638
     40 C14        -7.0930    2.8040   -0.6730 c         1 MOL      0.586179
     41 O6         -8.0940    3.2330   -1.2170 o         1 MOL     -0.586953
     42 C15        -5.2040    2.4570   -2.2800 c3        1 MOL     -0.082545
     43 C16        -3.7580    2.6400   -2.7290 c         1 MOL      0.733026
     44 O7         -3.5070    3.5700   -3.5250 o         1 MOL     -0.713817
     45 O8         -2.8230    1.9730   -2.2990 o         1 MOL     -0.713817
     46 H19        -4.0070    2.6350   -0.0540 hn        1 MOL      0.154115
     47 H20        -5.9260    4.3280   -1.4800 h1        1 MOL      0.078100
     48 H21        -5.8510    2.5480   -3.1560 hc        1 MOL      0.018000
     49 H22        -5.3950    1.4770   -1.8550 hc        1 MOL      0.018000
     50 N4         -7.0340    1.9120    0.2590 n         1 MOL     -0.219272
     51 C17        -8.1440    1.1090    0.7620 c3        1 MOL     -0.189671
     52 C18        -8.4630   -0.1230   -0.0430 c         1 MOL      0.509698
     53 O9         -9.6630   -0.4700   -0.2330 o         1 MOL     -0.621288
     54 H23        -6.1560    1.5130    0.5480 hn        1 MOL      0.179939
     55 H24        -8.9620    1.8190    0.6910 h1        1 MOL      0.096398
     56 H25        -8.0150    0.9440    1.8320 h1        1 MOL      0.096398
     57 N5         -7.4410   -0.7980   -0.5320 n         1 MOL     -0.019406
     58 C19        -7.4420   -2.1420   -1.1880 c3        1 MOL     -0.161153
     59 C20        -7.0430   -3.3350   -0.3270 c         1 MOL      0.443477
     60 O10        -7.1300   -4.4800   -0.7170 o         1 MOL     -0.553750
     61 C21        -6.4770   -2.0440   -2.3940 c3        1 MOL     -0.101052
     62 C22        -5.0520   -1.6370   -2.2010 c         1 MOL      0.843099
     63 O11        -4.5790   -0.7170   -2.8780 o         1 MOL     -0.783962
     64 O12        -4.2580   -2.2700   -1.5260 o         1 MOL     -0.783962
     65 H26        -6.6130   -0.4410   -0.0870 hn        1 MOL     -0.081319
     66 H27        -8.4460   -2.3610   -1.5640 h1        1 MOL      0.125524
     67 H28        -6.9480   -1.4130   -3.1460 hc        1 MOL      0.035344
     68 H29        -6.3470   -3.0180   -2.8660 hc        1 MOL      0.035344
     69 N6         -6.4820   -3.1210    0.8410 n         1 MOL     -0.212957
     70 C23        -5.8860   -4.1340    1.7600 c3        1 MOL     -0.158198
     71 C24        -4.5860   -4.6790    1.3290 c         1 MOL      0.624705
     72 O13        -4.1910   -5.6890    1.9590 o         1 MOL     -0.625215
     73 H30        -6.3700   -2.1910    1.2210 hn        1 MOL      0.222071
     74 H31        -6.6100   -4.9590    1.8080 h1        1 MOL      0.077793
     75 H32        -5.8010   -3.6660    2.7380 h1        1 MOL      0.077793
     76 N7         -3.8500   -4.1610    0.3350 n         1 MOL     -0.298393
     77 C25        -2.3930   -4.4730    0.3530 c3        1 MOL     -0.071312
     78 C26        -1.5150   -3.3120    0.6990 c         1 MOL      0.689858
     79 O14        -1.9530   -2.1600    0.5550 o         1 MOL     -0.711118
     80 C27        -2.0060   -5.4160   -0.8180 c3        1 MOL     -0.065286
     81 C28        -2.1790   -4.8400   -2.2100 c3        1 MOL     -0.137775
     82 C29        -1.0780   -3.8620   -2.5060 c         1 MOL      0.513205
     83 N8         -0.0010   -4.3070   -3.0110 n         1 MOL     -0.714384
     84 O15        -1.2570   -2.6920   -2.3260 o         1 MOL     -0.521061
     85 H33        -4.1760   -3.4080   -0.2550 hn        1 MOL      0.325679
     86 H34        -2.2210   -5.1620    1.1890 h1        1 MOL      0.056185
     87 H35        -2.6550   -6.2950   -0.8090 hc        1 MOL      0.018280
     88 H36        -0.9620   -5.6730   -0.6540 hc        1 MOL      0.018280
     89 H37        -3.1600   -4.3720   -2.2910 hc        1 MOL      0.066144
     90 H38        -2.1870   -5.6910   -2.9030 hc        1 MOL      0.066144
     91 H39         0.1710   -5.2870   -3.1510 hn        1 MOL      0.348835
     92 H40         0.6790   -3.6220   -3.3190 hn        1 MOL      0.348835
     93 N9         -0.2670   -3.6480    1.1180 n         1 MOL     -0.446305
     94 C30         0.8510   -2.7430    1.5120 c3        1 MOL     -0.022300
     95 C31         2.1150   -3.1840    0.7640 c         1 MOL      0.452620
     96 O16         2.8870   -4.0540    1.1270 o         1 MOL     -0.529303
     97 C32         0.9500   -2.7160    3.0100 c3        1 MOL      0.237030
     98 C33         1.8900   -1.7010    3.6220 c3        1 MOL     -0.232334
     99 C34        -0.3610   -2.7220    3.8040 c3        1 MOL     -0.232334
    100 H41        -0.0820   -4.6330    1.1890 hn        1 MOL      0.291609
    101 H42         0.5780   -1.7260    1.2180 h1        1 MOL      0.163150
    102 H43         1.4510   -3.6570    3.2570 hc        1 MOL     -0.060865
    103 H44         2.0630   -1.9330    4.6710 hc        1 MOL      0.043713
    104 H45         2.8320   -1.5520    3.0990 hc        1 MOL      0.043713
    105 H46         1.5020   -0.6920    3.5340 hc        1 MOL      0.043713
    106 H47        -0.9090   -3.6570    3.6650 hc        1 MOL      0.043713
    107 H48        -0.1300   -2.6820    4.8690 hc        1 MOL      0.043713
    108 H49        -0.9320   -1.8020    3.6740 hc        1 MOL      0.043713
    109 N10         2.3380   -2.4960   -0.3750 n         1 MOL     -0.329319
    110 C35         3.6010   -2.3480   -1.1040 c3        1 MOL      0.122116
    111 C36         4.7570   -1.7830   -0.2350 c         1 MOL      0.240225
    112 O17         4.5160   -1.0680    0.7210 o         1 MOL     -0.146556
    113 C37         3.3850   -1.4800   -2.4150 c3        1 MOL     -0.527909
    114 C38         2.3100   -2.0160   -3.2800 c         1 MOL      0.804886
    115 N11         1.1490   -1.3610   -3.2590 n         1 MOL     -0.876915
    116 O18         2.4270   -3.0500   -3.9360 o         1 MOL     -0.632369
    117 H50         1.5760   -1.8800   -0.6400 hn        1 MOL      0.221697
    118 H51         3.9460   -3.3230   -1.4670 h1        1 MOL      0.053688
    119 H52         4.2850   -1.5360   -3.0290 hc        1 MOL      0.165305
    120 H53         3.1310   -0.4390   -2.2450 hc        1 MOL      0.165305
    121 H54         0.8240   -0.8730   -2.4480 hn        1 MOL      0.390178
    122 H55         0.4750   -1.5320   -3.9880 hn        1 MOL      0.390178
    123 N12         5.9440   -2.1350   -0.6510 n         1 MOL     -0.398026
    124 C39         7.1960   -1.4590   -0.1720 c3        1 MOL      0.129655
    125 C40         7.0570    0.1150   -0.1720 c         1 MOL      0.440420
    126 O19         7.2180    0.7770    0.9090 o         1 MOL     -0.520720
    127 C41         8.3540   -1.8950   -1.1040 c3        1 MOL     -0.106681
    128 C42         9.7670   -1.5290   -0.5240 ca        1 MOL     -0.054526
    129 C43        10.3000   -2.3210    0.4840 ca        1 MOL     -0.087564
    130 C44        10.4650   -0.4060   -1.0700 ca        1 MOL     -0.087564
    131 C45        11.6220   -2.0050    0.9480 ca        1 MOL     -0.349736
    132 C46        11.7180   -0.0180   -0.5250 ca        1 MOL     -0.349736
    133 C47        12.2560   -0.8320    0.4910 ca        1 MOL      0.474551
    134 O20        13.3810   -0.3430    1.0850 oh        1 MOL     -0.611701
    135 H56         5.9760   -2.7940   -1.4130 hn        1 MOL      0.292746
    136 H57         7.4750   -1.8100    0.8150 h1        1 MOL      0.073560
    137 H58         8.2990   -1.4070   -2.0750 hc        1 MOL      0.042232
    138 H59         8.2730   -2.9590   -1.2900 hc        1 MOL      0.042232
    139 H60         9.6990   -3.1240    0.8790 ha        1 MOL      0.130682
    140 H61        10.0210    0.2090   -1.8310 ha        1 MOL      0.130682
    141 H62        12.0010   -2.5970    1.7780 ha        1 MOL      0.162181
    142 H63        12.1760    0.9110   -0.8010 ha        1 MOL      0.162181
    143 H64        13.5760    0.5960    1.0190 ho        1 MOL      0.418621
    144 N13         6.5260    0.7260   -1.2580 n         1 MOL     -0.328473
    145 C48         6.0090    2.1760   -1.2910 c3        1 MOL     -0.089979
    146 C49         5.1500    2.6790   -0.0510 c         1 MOL      0.352959
    147 O21         5.1740    3.8370    0.3270 o         1 MOL     -0.499151
    148 C50         5.2180    2.3840   -2.5480 c3        1 MOL      0.035938
    149 C51         4.9320    3.9030   -2.8980 c3        1 MOL     -0.277304
    150 C52         4.2950    4.1130   -4.2980 c         1 MOL      0.755542
    151 O22         4.9330    3.9580   -5.3100 o         1 MOL     -0.724489
    152 O23         3.0660    4.2380   -4.3760 o         1 MOL     -0.724489
    153 H65         6.5640    0.2430   -2.1420 hn        1 MOL      0.227325
    154 H66         6.8920    2.7830   -1.4930 h1        1 MOL      0.111274
    155 H67         4.3180    1.7790   -2.6270 hc        1 MOL      0.009718
    156 H68         5.8740    2.1110   -3.3740 hc        1 MOL      0.009718
    157 H69         5.8280    4.5190   -2.8890 hc        1 MOL      0.043435
    158 H70         4.2720    4.3440   -2.1540 hc        1 MOL      0.043435
    159 N14         4.3900    1.7400    0.4810 n         1 MOL      0.035139
    160 C53         3.4040    1.9530    1.6010 c3        1 MOL     -0.075893
    161 C54         4.0800    1.6060    2.9860 c         1 MOL      0.398945
    162 O24         3.9240    2.3290    3.9570 o         1 MOL     -0.542688
    163 C55         2.0920    1.1450    1.3030 c3        1 MOL      0.318607
    164 C56         1.6640    1.4000   -0.0660 c3        1 MOL     -0.181025
    165 C57         0.3110    0.7140   -0.3390 c         1 MOL      0.542705
    166 O25        -0.7020    1.4420   -0.3080 o         1 MOL     -0.636258
    167 O26         0.1700   -0.4110   -0.7500 o         1 MOL     -0.636258
    168 H71         4.4750    0.7660    0.2170 hn        1 MOL     -0.007325
    169 H72         3.0300    2.9740    1.5540 h1        1 MOL      0.063833
    170 H73         1.3230    1.4550    2.0060 hc        1 MOL     -0.050821
    171 H74         2.2400    0.0630    1.3880 hc        1 MOL     -0.050821
    172 H75         2.3750    0.9230   -0.7390 hc        1 MOL      0.079726
    173 H76         1.5970    2.4730   -0.2470 hc        1 MOL      0.079726
    174 N15         4.8770    0.5380    3.0200 n         1 MOL      0.074918
    175 C58         5.6990    0.1990    4.1520 c3        1 MOL     -0.505519
    176 H77         5.0630   -0.1000    4.9850 h1        1 MOL      0.145022
    177 H78         6.3610   -0.6240    3.8870 h1        1 MOL      0.145022
    178 H79         6.2930    1.0650    4.4420 h1        1 MOL      0.145022
    179 H80         4.9740   -0.0520    2.2040 hn        1 MOL      0.018507
    180 Ca1        -2.3130   -0.3840   -1.4790 Ca        1 MOL      1.736407
    181 O27        -1.5380   -0.0930   -3.9160 oh        1 MOL     -0.819603
    182 H81        -1.2550   -0.4200   -4.7720 ho        1 MOL      0.405687
    183 H82        -1.5480    0.8580   -4.0110 ho        1 MOL      0.405687
@<TRIPOS>BOND
     1    1    2 1   
     2    1    4 1   
     3    1    5 1   
     4    1    6 1   
     5    2    3 2   
     6    2    7 1   
     7    7    8 1   
     8    7   15 1   
     9    8    9 1   
    10    8   11 1   
    11    8   16 1   
    12    9   10 2   
    13    9   19 1   
    14   11   12 1   
    15   11   17 1   
    16   11   18 1   
    17   12   13 1   
    18   12   14 1   
    19   19   20 1   
    20   19   27 1   
    21   20   21 1   
    22   20   23 1   
    23   20   28 1   
    24   21   22 2   
    25   21   38 1   
    26   23   24 1   
    27   23   25 1   
    28   23   29 1   
    29   24   26 1   
    30   24   30 1   
    31   24   31 1   
    32   25   32 1   
    33   25   33 1   
    34   25   34 1   
    35   26   35 1   
    36   26   36 1   
    37   26   37 1   
    38   38   39 1   
    39   38   46 1   
    40   39   40 1   
    41   39   42 1   
    42   39   47 1   
    43   40   41 2   
    44   40   50 1   
    45   42   43 1   
    46   42   48 1   
    47   42   49 1   
    48   43   44 1   
    49   43   45 1   
    50   50   51 1   
    51   50   54 1   
    52   51   52 1   
    53   51   55 1   
    54   51   56 1   
    55   52   53 2   
    56   52   57 1   
    57   57   58 1   
    58   57   65 1   
    59   58   59 1   
    60   58   61 1   
    61   58   66 1   
    62   59   60 2   
    63   59   69 1   
    64   61   62 1   
    65   61   67 1   
    66   61   68 1   
    67   62   63 1   
    68   62   64 1   
    69   69   70 1   
    70   69   73 1   
    71   70   71 1   
    72   70   74 1   
    73   70   75 1   
    74   71   72 2   
    75   71   76 1   
    76   76   77 1   
    77   76   85 1   
    78   77   78 1   
    79   77   80 1   
    80   77   86 1   
    81   78   79 2   
    82   78   93 1   
    83   80   81 1   
    84   80   87 1   
    85   80   88 1   
    86   81   82 1   
    87   81   89 1   
    88   81   90 1   
    89   82   83 1   
    90   82   84 2   
    91   83   91 1   
    92   83   92 1   
    93   93   94 1   
    94   93  100 1   
    95   94   95 1   
    96   94   97 1   
    97   94  101 1   
    98   95   96 2   
    99   95  109 1   
   100   97   98 1   
   101   97   99 1   
   102   97  102 1   
   103   98  103 1   
   104   98  104 1   
   105   98  105 1   
   106   99  106 1   
   107   99  107 1   
   108   99  108 1   
   109  109  110 1   
   110  109  117 1   
   111  110  111 1   
   112  110  113 1   
   113  110  118 1   
   114  111  112 2   
   115  111  123 1   
   116  113  114 1   
   117  113  119 1   
   118  113  120 1   
   119  114  115 1   
   120  114  116 2   
   121  115  121 1   
   122  115  122 1   
   123  123  124 1   
   124  123  135 1   
   125  124  125 1   
   126  124  127 1   
   127  124  136 1   
   128  125  126 2   
   129  125  144 1   
   130  127  128 1   
   131  127  137 1   
   132  127  138 1   
   133  128  129 ar  
   134  128  130 ar  
   135  129  131 ar  
   136  129  139 1   
   137  130  132 ar  
   138  130  140 1   
   139  131  133 ar  
   140  131  141 1   
   141  132  133 ar  
   142  132  142 1   
   143  133  134 1   
   144  134  143 1   
   145  144  145 1   
   146  144  153 1   
   147  145  146 1   
   148  145  148 1   
   149  145  154 1   
   150  146  147 2   
   151  146  159 1   
   152  148  149 1   
   153  148  155 1   
   154  148  156 1   
   155  149  150 1   
   156  149  157 1   
   157  149  158 1   
   158  150  151 1   
   159  150  152 1   
   160  159  160 1   
   161  159  168 1   
   162  160  161 1   
   163  160  163 1   
   164  160  169 1   
   165  161  162 2   
   166  161  174 1   
   167  163  164 1   
   168  163  170 1   
   169  163  171 1   
   170  164  165 1   
   171  164  172 1   
   172  164  173 1   
   173  165  166 1   
   174  165  167 1   
   175  174  175 1   
   176  174  179 1   
   177  175  176 1   
   178  175  177 1   
   179  175  178 1   
   180  181  182 1   
   181  181  183 1   
@<TRIPOS>SUBSTRUCTURE
     1 MOL         1 TEMP              0 ****  ****    0 ROOT
