@<TRIPOS>MOLECULE
MOL
  175   173     1     0     0
SMALL
resp


@<TRIPOS>ATOM
      1 C1          0.6620    4.2660    5.3040 c3        1 MOL     -0.448012
      2 C2          0.0870    4.2520    3.8720 c         1 MOL      0.719009
      3 O1          0.7400    4.5960    2.9210 o         1 MOL     -0.561649
      4 H1          1.2050    3.3390    5.4860 hc        1 MOL      0.104959
      5 H2          1.3410    5.1120    5.4150 hc        1 MOL      0.104959
      6 H3         -0.1520    4.3570    6.0220 hc        1 MOL      0.104959
      7 N1         -1.1560    3.9680    3.7410 n         1 MOL     -0.563555
      8 C3         -1.9100    3.8030    2.5140 c3        1 MOL      0.108385
      9 C4         -2.1990    5.0290    1.6260 c         1 MOL      0.791178
     10 O2         -2.1940    6.1150    2.0830 o         1 MOL     -0.600226
     11 C5         -3.2260    3.1790    2.8510 c3        1 MOL     -0.421812
     12 C6         -4.0270    2.5750    1.7080 c         1 MOL      0.813492
     13 O3         -5.2630    2.4760    1.8280 o         1 MOL     -0.672314
     14 O4         -3.3980    2.2030    0.6960 o         1 MOL     -0.672314
     15 H4         -1.5700    3.9920    4.6540 hn        1 MOL      0.308848
     16 H5         -1.3270    3.1700    1.8500 h1        1 MOL      0.050823
     17 H6         -3.8820    3.8740    3.3810 hc        1 MOL      0.072750
     18 H7         -3.0160    2.2970    3.4490 hc        1 MOL      0.072750
     19 N2         -2.3600    4.7710    0.3240 n         1 MOL     -0.740098
     20 C7         -2.7710    5.6920   -0.6690 c3        1 MOL      0.256580
     21 C8         -3.6290    5.1170   -1.8690 c         1 MOL      0.494747
     22 O5         -3.9630    5.8610   -2.7980 o         1 MOL     -0.563249
     23 C9         -1.5190    6.3790   -1.1770 c3        1 MOL     -0.263970
     24 H8         -2.2440    3.7760    0.1600 hn        1 MOL      0.407164
     25 H9         -3.4140    6.4740   -0.2480 h1        1 MOL      0.022626
     26 H10        -0.7410    6.5820   -0.4390 hc        1 MOL      0.067099
     27 H11        -0.9930    5.8960   -1.9900 hc        1 MOL      0.067099
     28 H12        -1.8220    7.2800   -1.7120 hc        1 MOL      0.067099
     29 N3         -4.0590    3.8490   -1.7760 n         1 MOL     -0.419041
     30 C10        -4.8870    3.1870   -2.8550 c3        1 MOL      0.173851
     31 C11        -6.0930    2.3470   -2.3720 c         1 MOL      0.276119
     32 O6         -7.0740    2.1640   -3.1380 o         1 MOL     -0.531552
     33 C12        -4.0050    2.3850   -3.7060 c3        1 MOL     -0.134005
     34 C13        -3.1340    1.3920   -2.8830 c         1 MOL      0.627219
     35 O7         -3.7530    0.5370   -2.1800 o         1 MOL     -0.672742
     36 O8         -1.9040    1.5450   -2.7850 o         1 MOL     -0.672742
     37 H13        -3.8110    3.2690   -0.9880 hn        1 MOL      0.247490
     38 H14        -5.2390    3.9360   -3.5660 h1        1 MOL      0.065256
     39 H15        -3.3420    3.0340   -4.2720 hc        1 MOL      0.036381
     40 H16        -4.7110    1.8480   -4.3450 hc        1 MOL      0.036381
     41 N4         -6.0970    1.8830   -1.1140 n         1 MOL      0.001201
     42 C14        -7.2720    1.2040   -0.4920 c3        1 MOL     -0.164380
     43 C15        -7.3710   -0.2650   -1.0150 c         1 MOL      0.474339
     44 O9         -8.4300   -0.8670   -0.8740 o         1 MOL     -0.606969
     45 H17        -5.4340    2.2030   -0.4160 hn        1 MOL      0.039020
     46 H18        -8.2440    1.6740   -0.6420 h1        1 MOL      0.097032
     47 H19        -7.0340    1.1460    0.5600 h1        1 MOL      0.097032
     48 N5         -6.2640   -0.8390   -1.5600 n         1 MOL     -0.125937
     49 C16        -6.2820   -2.1920   -2.1560 c3        1 MOL     -0.128031
     50 C17        -6.1990   -3.2250   -1.0040 c         1 MOL      0.544015
     51 O10        -5.8120   -4.3570   -1.2050 o         1 MOL     -0.536995
     52 C18        -5.0690   -2.3240   -3.1460 c3        1 MOL     -0.065799
     53 C19        -3.6680   -2.5850   -2.5860 c         1 MOL      0.455303
     54 N6         -2.7310   -2.8720   -3.4180 n         1 MOL     -0.574250
     55 O11        -3.3390   -2.3700   -1.4550 o         1 MOL     -0.499782
     56 H20        -5.4580   -0.2620   -1.6800 hn        1 MOL      0.131682
     57 H21        -7.2880   -2.4130   -2.5090 h1        1 MOL      0.112688
     58 H22        -4.9940   -1.4740   -3.8230 hc        1 MOL      0.049017
     59 H23        -5.3160   -3.0830   -3.8920 hc        1 MOL      0.049017
     60 H24        -2.8910   -3.1270   -4.3780 hn        1 MOL      0.314987
     61 H25        -1.8090   -2.7500   -3.0200 hn        1 MOL      0.314987
     62 N7         -6.5050   -2.8930    0.2840 n         1 MOL     -0.315177
     63 C20        -6.6230   -3.8830    1.3670 c3        1 MOL     -0.344833
     64 C21        -5.2630   -4.3470    1.8750 c         1 MOL      0.556570
     65 O12        -5.2420   -5.1080    2.8670 o         1 MOL     -0.566124
     66 H26        -6.5260   -1.9010    0.4660 hn        1 MOL      0.293167
     67 H27        -7.1810   -4.7670    1.0560 h1        1 MOL      0.165531
     68 H28        -7.1650   -3.2560    2.0730 h1        1 MOL      0.165531
     69 N8         -4.0420   -3.8750    1.4080 n         1 MOL     -0.124016
     70 C22        -2.7320   -4.4120    1.6970 c3        1 MOL     -0.241906
     71 C23        -1.6020   -3.4060    1.5430 c         1 MOL      0.376517
     72 O13        -1.6610   -2.3560    0.8840 o         1 MOL     -0.421629
     73 C24        -2.3930   -5.5830    0.7850 c3        1 MOL      0.526660
     74 C25        -3.2380   -6.7740    0.8800 c3        1 MOL     -0.714766
     75 O14        -2.4080   -5.0460   -0.5610 oh        1 MOL     -0.573555
     76 H29        -4.0820   -3.0270    0.8580 hn        1 MOL      0.088500
     77 H30        -2.6860   -4.6720    2.7610 h1        1 MOL      0.094387
     78 H31        -1.3440   -5.8530    0.9180 h1        1 MOL      0.007028
     79 H32        -2.9200   -4.2270   -0.5530 ho        1 MOL      0.339487
     80 H33        -3.3480   -7.0630    1.9260 hc        1 MOL      0.179959
     81 H34        -4.2440   -6.6410    0.5040 hc        1 MOL      0.179959
     82 H35        -2.7570   -7.5040    0.2290 hc        1 MOL      0.179959
     83 N9         -0.4490   -3.6610    2.2470 n         1 MOL     -0.273669
     84 C26         0.7330   -2.7710    2.1460 c3        1 MOL     -0.208174
     85 C27         1.4580   -3.0940    0.8590 c         1 MOL      0.587099
     86 O15         1.8110   -4.2640    0.6600 o         1 MOL     -0.602828
     87 C28         1.5830   -2.9130    3.4350 c3        1 MOL      0.232698
     88 C29         0.8860   -2.1730    4.5880 c3        1 MOL      0.140903
     89 C30         2.9960   -2.3010    3.1390 c3        1 MOL     -0.197359
     90 C31         1.7020   -2.4820    5.8440 c3        1 MOL     -0.154577
     91 H36        -0.4920   -4.5300    2.7580 hn        1 MOL      0.226813
     92 H37         0.4580   -1.7180    2.1100 h1        1 MOL      0.030381
     93 H38         1.6690   -3.9660    3.6910 hc        1 MOL     -0.018671
     94 H39        -0.1110   -2.5760    4.7140 hc        1 MOL     -0.028420
     95 H40         0.8310   -1.0950    4.4240 hc        1 MOL     -0.028420
     96 H41         3.4830   -2.5170    2.1910 hc        1 MOL      0.034541
     97 H42         2.9550   -1.2190    3.2410 hc        1 MOL      0.034541
     98 H43         3.7530   -2.6490    3.8360 hc        1 MOL      0.034541
     99 H44         2.7720   -2.5820    5.6980 hc        1 MOL      0.016619
    100 H45         1.3880   -1.6960    6.5380 hc        1 MOL      0.016619
    101 H46         1.3500   -3.4430    6.2220 hc        1 MOL      0.016619
    102 N10         1.6770   -2.0670    0.0630 n         1 MOL     -0.173322
    103 C32         2.6040   -2.0080   -1.1420 c3        1 MOL     -0.005751
    104 C33         4.0010   -1.5070   -0.7670 c         1 MOL      0.332784
    105 O16         4.2850   -0.7970    0.2350 o         1 MOL     -0.192501
    106 C34         1.9510   -1.1590   -2.2280 c3        1 MOL     -0.145153
    107 C35         0.5460   -1.6790   -2.6140 c         1 MOL      0.709564
    108 O17        -0.3760   -1.2970   -1.8780 o         1 MOL     -0.672128
    109 O18         0.3430   -2.2420   -3.6760 o         1 MOL     -0.672128
    110 H47         1.3030   -1.1660    0.3090 hn        1 MOL      0.103807
    111 H48         2.6920   -2.9830   -1.6270 h1        1 MOL      0.075359
    112 H49         2.5620   -1.1120   -3.1360 hc        1 MOL      0.032992
    113 H50         1.8780   -0.1130   -1.9150 hc        1 MOL      0.032992
    114 N11         5.0400   -1.8000   -1.5870 n         1 MOL     -0.533651
    115 C36         6.4270   -1.5280   -1.3100 c3        1 MOL      0.208208
    116 C37         6.8360   -0.0750   -1.0130 c         1 MOL      0.293232
    117 O19         7.5210    0.1720   -0.0020 o         1 MOL     -0.469613
    118 C38         7.2380   -2.2240   -2.4490 c3        1 MOL     -0.121447
    119 C39         8.7020   -2.0170   -2.1370 ca        1 MOL      0.074160
    120 C40         9.2530   -2.6910   -1.0190 ca        1 MOL     -0.187497
    121 C41         9.4870   -1.1230   -2.8790 ca        1 MOL     -0.187497
    122 C42        10.6370   -2.6830   -0.8580 ca        1 MOL     -0.029217
    123 C43        10.8810   -1.0800   -2.6820 ca        1 MOL     -0.029217
    124 C44        11.4940   -1.9000   -1.6950 ca        1 MOL     -0.226675
    125 H51         4.8710   -2.3140   -2.4480 hn        1 MOL      0.312669
    126 H52         6.6730   -2.0810   -0.4030 h1        1 MOL      0.091682
    127 H53         6.9890   -1.8390   -3.4330 hc        1 MOL      0.053230
    128 H54         7.1120   -3.3040   -2.4450 hc        1 MOL      0.053230
    129 H55         8.6560   -3.3750   -0.4450 ha        1 MOL      0.116991
    130 H56         8.9830   -0.4930   -3.5850 ha        1 MOL      0.116991
    131 H57        11.0350   -3.3350   -0.0950 ha        1 MOL      0.087804
    132 H58        11.5380   -0.5170   -3.3280 ha        1 MOL      0.087804
    133 H59        12.5620   -1.8200   -1.5370 ha        1 MOL      0.133094
    134 N12         6.5260    0.9710   -1.8260 n         1 MOL      0.013794
    135 C45         6.7170    2.4050   -1.4480 c3        1 MOL     -0.067791
    136 C46         5.9740    2.7790   -0.1160 c         1 MOL      0.352842
    137 O20         6.3240    3.7780    0.5440 o         1 MOL     -0.502618
    138 C47         6.0750    3.2070   -2.5730 c3        1 MOL     -0.124255
    139 C48         5.2240    2.2810   -3.4290 c3        1 MOL     -0.065435
    140 C49         5.9850    0.9300   -3.2100 c3        1 MOL     -0.012569
    141 H60         7.7670    2.6540   -1.3960 h1        1 MOL      0.082524
    142 H61         5.4910    4.0690   -2.2410 hc        1 MOL      0.074307
    143 H62         6.8990    3.5050   -3.2140 hc        1 MOL      0.074307
    144 H63         4.2750    2.1610   -2.8990 hc        1 MOL      0.048505
    145 H64         5.2910    2.6570   -4.4600 hc        1 MOL      0.048505
    146 H65         5.2410    0.1400   -3.3040 h1        1 MOL      0.020150
    147 H66         6.8330    0.8290   -3.8840 h1        1 MOL      0.020150
    148 N13         4.8310    2.0870    0.2170 n         1 MOL     -0.188440
    149 C50         4.1710    2.3600    1.5640 c3        1 MOL     -0.129954
    150 C51         4.9720    1.5760    2.6540 c         1 MOL      0.519187
    151 O21         4.9870    1.9910    3.7770 o         1 MOL     -0.577977
    152 C52         2.6840    1.8480    1.6000 c3        1 MOL     -0.098848
    153 C53         1.8540    2.2140    0.4360 c3        1 MOL     -0.067502
    154 C54         0.4470    1.5790    0.4510 c         1 MOL      0.711272
    155 O22         0.2920    0.4480    0.8860 o         1 MOL     -0.724732
    156 O23        -0.4780    2.1300   -0.1590 o         1 MOL     -0.724732
    157 H67         4.6340    1.2710   -0.3460 hn        1 MOL      0.204774
    158 H68         4.1880    3.4130    1.8560 h1        1 MOL      0.131563
    159 H69         2.2230    2.1150    2.5470 hc        1 MOL      0.072545
    160 H70         2.7560    0.7670    1.5880 hc        1 MOL      0.072545
    161 H71         2.2480    1.9430   -0.5450 hc        1 MOL      0.043414
    162 H72         1.5950    3.2740    0.3510 hc        1 MOL      0.043414
    163 N14         5.5650    0.4370    2.3140 n         1 MOL     -0.060868
    164 C55         6.5850   -0.2740    3.2210 c3        1 MOL     -0.209402
    165 H73         6.4290   -1.3510    3.1670 h1        1 MOL      0.082073
    166 H74         7.5960   -0.0370    2.8870 h1        1 MOL      0.082073
    167 H75         6.4530    0.0610    4.2500 h1        1 MOL      0.082073
    168 H76         5.4120   -0.0130    1.4210 hn        1 MOL     -0.009591
    169 Ca1        -1.9870    0.1350   -0.4000 Ca        1 MOL      1.692040
    170 O24        -1.8060    0.3630    2.5230 oh        1 MOL     -0.795552
    171 H77        -1.6990    0.5900    3.4460 ho        1 MOL      0.391084
    172 H78        -0.9660    0.5430    2.1240 ho        1 MOL      0.391084
    173 O25        -4.1260   -0.7120    1.3330 oh        1 MOL     -0.795552
    174 H79        -4.8820   -0.5170    1.8970 ho        1 MOL      0.391084
    175 H80        -3.4060   -0.8570    1.9450 ho        1 MOL      0.391084
@<TRIPOS>BOND
     1    1    2 1   
     2    1    4 1   
     3    1    5 1   
     4    1    6 1   
     5    2    3 2   
     6    2    7 1   
     7    7    8 1   
     8    7   15 1   
     9    8    9 1   
    10    8   11 1   
    11    8   16 1   
    12    9   10 2   
    13    9   19 1   
    14   11   12 1   
    15   11   17 1   
    16   11   18 1   
    17   12   13 1   
    18   12   14 1   
    19   19   20 1   
    20   19   24 1   
    21   20   21 1   
    22   20   23 1   
    23   20   25 1   
    24   21   22 2   
    25   21   29 1   
    26   23   26 1   
    27   23   27 1   
    28   23   28 1   
    29   29   30 1   
    30   29   37 1   
    31   30   31 1   
    32   30   33 1   
    33   30   38 1   
    34   31   32 2   
    35   31   41 1   
    36   33   34 1   
    37   33   39 1   
    38   33   40 1   
    39   34   35 1   
    40   34   36 1   
    41   41   42 1   
    42   41   45 1   
    43   42   43 1   
    44   42   46 1   
    45   42   47 1   
    46   43   44 2   
    47   43   48 1   
    48   48   49 1   
    49   48   56 1   
    50   49   50 1   
    51   49   52 1   
    52   49   57 1   
    53   50   51 2   
    54   50   62 1   
    55   52   53 1   
    56   52   58 1   
    57   52   59 1   
    58   53   54 1   
    59   53   55 2   
    60   54   60 1   
    61   54   61 1   
    62   62   63 1   
    63   62   66 1   
    64   63   64 1   
    65   63   67 1   
    66   63   68 1   
    67   64   65 2   
    68   64   69 1   
    69   69   70 1   
    70   69   76 1   
    71   70   71 1   
    72   70   73 1   
    73   70   77 1   
    74   71   72 2   
    75   71   83 1   
    76   73   74 1   
    77   73   75 1   
    78   73   78 1   
    79   74   80 1   
    80   74   81 1   
    81   74   82 1   
    82   75   79 1   
    83   83   84 1   
    84   83   91 1   
    85   84   85 1   
    86   84   87 1   
    87   84   92 1   
    88   85   86 2   
    89   85  102 1   
    90   87   88 1   
    91   87   89 1   
    92   87   93 1   
    93   88   90 1   
    94   88   94 1   
    95   88   95 1   
    96   89   96 1   
    97   89   97 1   
    98   89   98 1   
    99   90   99 1   
   100   90  100 1   
   101   90  101 1   
   102  102  103 1   
   103  102  110 1   
   104  103  104 1   
   105  103  106 1   
   106  103  111 1   
   107  104  105 2   
   108  104  114 1   
   109  106  107 1   
   110  106  112 1   
   111  106  113 1   
   112  107  108 1   
   113  107  109 1   
   114  114  115 1   
   115  114  125 1   
   116  115  116 1   
   117  115  118 1   
   118  115  126 1   
   119  116  117 2   
   120  116  134 1   
   121  118  119 1   
   122  118  127 1   
   123  118  128 1   
   124  119  120 ar  
   125  119  121 ar  
   126  120  122 ar  
   127  120  129 1   
   128  121  123 ar  
   129  121  130 1   
   130  122  124 ar  
   131  122  131 1   
   132  123  124 ar  
   133  123  132 1   
   134  124  133 1   
   135  134  135 1   
   136  134  140 1   
   137  135  136 1   
   138  135  138 1   
   139  135  141 1   
   140  136  137 2   
   141  136  148 1   
   142  138  139 1   
   143  138  142 1   
   144  138  143 1   
   145  139  140 1   
   146  139  144 1   
   147  139  145 1   
   148  140  146 1   
   149  140  147 1   
   150  148  149 1   
   151  148  157 1   
   152  149  150 1   
   153  149  152 1   
   154  149  158 1   
   155  150  151 2   
   156  150  163 1   
   157  152  153 1   
   158  152  159 1   
   159  152  160 1   
   160  153  154 1   
   161  153  161 1   
   162  153  162 1   
   163  154  155 1   
   164  154  156 1   
   165  163  164 1   
   166  163  168 1   
   167  164  165 1   
   168  164  166 1   
   169  164  167 1   
   170  170  171 1   
   171  170  172 1   
   172  173  174 1   
   173  173  175 1   
@<TRIPOS>SUBSTRUCTURE
     1 MOL         1 TEMP              0 ****  ****    0 ROOT
