@<TRIPOS>MOLECULE
MOL
  172   171     1     0     0
SMALL
resp


@<TRIPOS>ATOM
      1 C1          0.2100   -3.8690    5.5270 c3        1 MOL     -0.367536
      2 C2          0.6900   -3.5030    4.0960 c         1 MOL      0.642344
      3 O1          0.1880   -4.0560    3.0780 o         1 MOL     -0.570826
      4 H1          0.6030   -4.8470    5.8020 hc        1 MOL      0.089995
      5 H2          0.5710   -3.1220    6.2340 hc        1 MOL      0.089995
      6 H3         -0.8800   -3.8960    5.5500 hc        1 MOL      0.089995
      7 N1          1.7270   -2.7000    4.0510 n         1 MOL     -0.508403
      8 C3          2.3610   -2.2720    2.7960 c3        1 MOL      0.032153
      9 C4          2.8320   -3.4400    1.9580 c         1 MOL      0.599787
     10 O2          3.8910   -4.0590    2.1940 o         1 MOL     -0.625970
     11 C5          3.4830   -1.3250    3.0830 c3        1 MOL     -0.120900
     12 C6          3.9500   -0.6400    1.7240 c         1 MOL      0.697786
     13 O3          3.1910   -0.6360    0.7210 o         1 MOL     -0.697756
     14 O4          5.0630   -0.0200    1.7010 o         1 MOL     -0.697756
     15 H4          2.2220   -2.3590    4.8650 hn        1 MOL      0.305401
     16 H5          1.6040   -1.6860    2.2730 h1        1 MOL      0.071408
     17 H6          4.2850   -1.9090    3.5350 hc        1 MOL      0.032590
     18 H7          3.3080   -0.5470    3.8230 hc        1 MOL      0.032590
     19 N2          2.0470   -3.8130    0.9850 n         1 MOL     -0.290520
     20 C7          2.1910   -5.1300    0.2290 c3        1 MOL      0.078741
     21 C8          3.1870   -5.1650   -0.9340 c         1 MOL      0.374568
     22 O5          3.4850   -6.3010   -1.4220 o         1 MOL     -0.562215
     23 C9          0.8480   -5.4460   -0.3920 c3        1 MOL     -0.223814
     24 H8          1.3070   -3.1630    0.7460 hn        1 MOL      0.300748
     25 H9          2.5020   -5.9760    0.8320 h1        1 MOL      0.071117
     26 H10         0.6900   -4.8820   -1.3080 hc        1 MOL      0.064730
     27 H11         0.8100   -6.4840   -0.7000 hc        1 MOL      0.064730
     28 H12         0.0380   -5.2590    0.3110 hc        1 MOL      0.064730
     29 N3          3.6700   -4.0180   -1.4540 n         1 MOL     -0.172377
     30 C10         4.7220   -3.9290   -2.4890 c3        1 MOL     -0.080262
     31 C11         6.0350   -3.2280   -1.9510 c         1 MOL      0.311886
     32 O6          7.0500   -3.0990   -2.5920 o         1 MOL     -0.503701
     33 C12         4.3660   -3.1130   -3.7670 c3        1 MOL     -0.019443
     34 C13         3.5320   -1.9210   -3.4050 c         1 MOL      0.685295
     35 O7          2.9700   -1.2850   -4.3140 o         1 MOL     -0.735093
     36 O8          3.3480   -1.5320   -2.2180 o         1 MOL     -0.735093
     37 H13         3.1620   -3.1680   -1.2170 hn        1 MOL      0.239686
     38 H14         4.9300   -4.9230   -2.8940 h1        1 MOL      0.093067
     39 H15         3.8190   -3.7810   -4.4250 hc        1 MOL      0.023256
     40 H16         5.1970   -2.7400   -4.3660 hc        1 MOL      0.023256
     41 N4          5.9140   -2.5840   -0.7960 n         1 MOL      0.078018
     42 C14         7.0500   -2.1340   -0.0080 c3        1 MOL     -0.124521
     43 C15         7.6550   -0.8310   -0.5480 c         1 MOL      0.621389
     44 O9          8.8280   -0.7920   -0.9400 o         1 MOL     -0.585133
     45 H17         4.9740   -2.5500   -0.4020 hn        1 MOL      0.009494
     46 H18         7.8800   -2.8400   -0.0260 h1        1 MOL      0.048960
     47 H19         6.7130   -1.9590    1.0130 h1        1 MOL      0.048960
     48 N5          6.7920    0.2060   -0.6030 n         1 MOL     -0.529155
     49 C16         7.1260    1.5010   -1.2340 c3        1 MOL      0.356884
     50 C17         6.7730    2.7170   -0.2780 c         1 MOL      0.441510
     51 O10         7.1400    3.7930   -0.5990 o         1 MOL     -0.536034
     52 C18         6.4980    1.6420   -2.5750 c3        1 MOL     -0.500723
     53 C19         4.9750    1.6160   -2.5350 c         1 MOL      0.757164
     54 N6          4.3990    1.7950   -3.6720 n         1 MOL     -0.714992
     55 O11         4.3580    1.5510   -1.4530 o         1 MOL     -0.584805
     56 H20         5.8980    0.1050   -0.1470 hn        1 MOL      0.204306
     57 H21         8.2140    1.5790   -1.1980 h1        1 MOL      0.006098
     58 H22         6.8100    0.8320   -3.2180 hc        1 MOL      0.124994
     59 H23         6.8350    2.6170   -2.9360 hc        1 MOL      0.124994
     60 H24         4.9240    1.6120   -4.5130 hn        1 MOL      0.349526
     61 H25         3.3990    1.9680   -3.6520 hn        1 MOL      0.349526
     62 N7          6.2330    2.4240    0.9470 n         1 MOL     -0.287646
     63 C20         5.9880    3.3820    2.0730 c3        1 MOL     -0.241669
     64 C21         4.6600    4.2370    1.9780 c         1 MOL      0.617067
     65 O12         4.5580    5.0940    2.8030 o         1 MOL     -0.601028
     66 H26         6.0920    1.4510    1.1580 hn        1 MOL      0.254547
     67 H27         6.7800    4.0920    2.3000 h1        1 MOL      0.118004
     68 H28         5.8280    2.7160    2.9170 h1        1 MOL      0.118004
     69 N8          3.8190    4.0340    1.0140 n         1 MOL     -0.265437
     70 C22         2.3960    4.5450    0.9450 c3        1 MOL     -0.110168
     71 C23         1.3310    3.4450    0.9120 c         1 MOL      0.605818
     72 O13         1.4810    2.6400   -0.0180 o         1 MOL     -0.563462
     73 C24         2.1730    5.4860   -0.2590 c3        1 MOL      0.388833
     74 C25         2.8560    6.8260   -0.0590 c3        1 MOL     -0.414033
     75 O14         2.5850    4.8810   -1.4010 oh        1 MOL     -0.577837
     76 H29         4.0550    3.3840    0.2940 hn        1 MOL      0.209109
     77 H30         2.2250    5.1650    1.8250 h1        1 MOL      0.059650
     78 H31         1.1030    5.6890   -0.2670 h1        1 MOL      0.004667
     79 H32         3.0010    5.5750   -1.9340 ho        1 MOL      0.393234
     80 H33         2.4400    7.4770   -0.8310 hc        1 MOL      0.101951
     81 H34         2.7640    7.2390    0.9400 hc        1 MOL      0.101951
     82 H35         3.9070    6.6750   -0.3280 hc        1 MOL      0.101951
     83 N9          0.3870    3.4780    1.8860 n         1 MOL     -0.572603
     84 C26        -0.7320    2.5470    1.9760 c3        1 MOL     -0.070197
     85 C27        -1.6590    3.0710    0.8780 c         1 MOL      0.618538
     86 O15        -2.2540    4.1070    0.9200 o         1 MOL     -0.610436
     87 C28        -1.4860    2.7060    3.3440 c3        1 MOL      0.042429
     88 C29        -0.5150    2.0620    4.3710 c3        1 MOL      0.154923
     89 C30        -2.9220    2.0760    3.4410 c3        1 MOL     -0.040855
     90 C31        -0.9260    2.1820    5.7740 c3        1 MOL     -0.163926
     91 H36         0.4740    4.1930    2.5990 hn        1 MOL      0.327294
     92 H37        -0.4450    1.5020    1.8430 h1        1 MOL      0.168053
     93 H38        -1.6040    3.7640    3.5850 hc        1 MOL      0.016671
     94 H39         0.4540    2.5650    4.3790 hc        1 MOL     -0.027472
     95 H40        -0.2990    1.0550    4.0280 hc        1 MOL     -0.027472
     96 H41        -2.9170    0.9870    3.5220 hc        1 MOL      0.000191
     97 H42        -3.3620    2.3850    4.3900 hc        1 MOL      0.000191
     98 H43        -3.5920    2.4140    2.6640 hc        1 MOL      0.000191
     99 H44        -0.9400    3.2350    6.0600 hc        1 MOL      0.024480
    100 H45        -1.9340    1.8500    5.9790 hc        1 MOL      0.024480
    101 H46        -0.3390    1.6450    6.5220 hc        1 MOL      0.024480
    102 N10        -1.9190    2.2350   -0.1150 n         1 MOL     -0.286525
    103 C32        -3.0810    2.2560   -1.0630 c3        1 MOL      0.042047
    104 C33        -4.3820    1.6900   -0.4450 c         1 MOL      0.464001
    105 O16        -4.4680    1.1370    0.6360 o         1 MOL     -0.332295
    106 C34        -2.7730    1.3600   -2.2720 c3        1 MOL     -0.285725
    107 C35        -1.3780    1.6420   -2.8270 c         1 MOL      0.781177
    108 O17        -1.1650    2.4990   -3.6710 o         1 MOL     -0.699641
    109 O18        -0.5120    0.8470   -2.4230 o         1 MOL     -0.699641
    110 H47        -1.3530    1.3980   -0.1280 hn        1 MOL      0.161491
    111 H48        -3.1930    3.2970   -1.3720 h1        1 MOL      0.072397
    112 H49        -3.5280    1.6200   -3.0220 hc        1 MOL      0.066683
    113 H50        -2.7550    0.3200   -1.9510 hc        1 MOL      0.066683
    114 N11        -5.4680    1.7960   -1.1980 n         1 MOL     -0.634754
    115 C36        -6.7740    1.3070   -0.8900 c3        1 MOL      0.452311
    116 C37        -6.8800   -0.2030   -0.5220 c         1 MOL      0.193326
    117 O19        -7.5290   -0.5160    0.5170 o         1 MOL     -0.474976
    118 C38        -7.6710    1.9000   -1.9590 c3        1 MOL     -0.172621
    119 C39        -9.1320    1.4470   -1.9050 ca        1 MOL      0.089726
    120 C40        -9.8610    1.8360   -0.7630 ca        1 MOL     -0.176392
    121 C41        -9.7050    0.6420   -2.9120 ca        1 MOL     -0.176392
    122 C42       -11.2180    1.5190   -0.7710 ca        1 MOL     -0.063781
    123 C43       -11.0670    0.3860   -2.9030 ca        1 MOL     -0.063781
    124 C44       -11.8270    0.8690   -1.8420 ca        1 MOL     -0.176638
    125 H51        -5.4570    2.3040   -2.0790 hn        1 MOL      0.304285
    126 H52        -7.0650    1.8990   -0.0180 h1        1 MOL      0.025232
    127 H53        -7.3950    1.6000   -2.9780 hc        1 MOL      0.052059
    128 H54        -7.5370    2.9770   -1.9900 hc        1 MOL      0.052059
    129 H55        -9.3910    2.3610    0.0580 ha        1 MOL      0.122041
    130 H56        -9.1220    0.1750   -3.6900 ha        1 MOL      0.122041
    131 H57       -11.9280    1.6290    0.0360 ha        1 MOL      0.096881
    132 H58       -11.5450   -0.2180   -3.6600 ha        1 MOL      0.096881
    133 H59       -12.8620    0.5900   -1.7420 ha        1 MOL      0.115859
    134 N12        -6.2940   -1.1520   -1.2860 n         1 MOL      0.042162
    135 C45        -6.3690   -2.5370   -1.0160 c3        1 MOL      0.041815
    136 C46        -5.6500   -3.0560    0.1980 c         1 MOL      0.261942
    137 O20        -6.0120   -4.0080    0.8360 o         1 MOL     -0.473792
    138 C47        -5.7460   -3.2370   -2.2020 c3        1 MOL      0.053007
    139 C48        -5.8580   -2.2490   -3.3340 c3        1 MOL     -0.073909
    140 C49        -5.9250   -0.8970   -2.6200 c3        1 MOL     -0.061077
    141 H60        -7.4020   -2.8760   -0.9710 h1        1 MOL      0.044325
    142 H61        -4.7420   -3.6280   -2.0580 hc        1 MOL      0.008728
    143 H62        -6.3800   -4.0940   -2.4660 hc        1 MOL      0.008728
    144 H63        -5.0010   -2.2130   -4.0080 hc        1 MOL      0.034902
    145 H64        -6.7320   -2.4470   -3.9570 hc        1 MOL      0.034902
    146 H65        -4.8800   -0.6120   -2.5110 h1        1 MOL      0.020148
    147 H66        -6.5450   -0.1340   -3.1040 h1        1 MOL      0.020148
    148 N13        -4.5560   -2.3160    0.4730 n         1 MOL     -0.075827
    149 C50        -3.7740   -2.3640    1.6700 c3        1 MOL     -0.221544
    150 C51        -4.4900   -1.7240    2.8680 c         1 MOL      0.520694
    151 O21        -4.3760   -2.1330    4.0070 o         1 MOL     -0.568359
    152 C52        -2.4490   -1.4910    1.4740 c3        1 MOL      0.142278
    153 C53        -1.6740   -2.0890    0.2960 c3        1 MOL     -0.346911
    154 C54        -0.4270   -1.3050    0.0740 c         1 MOL      0.870309
    155 O22        -0.2750   -0.0960    0.3230 o         1 MOL     -0.819816
    156 O23         0.5970   -1.8390   -0.4680 o         1 MOL     -0.819816
    157 H67        -4.2530   -1.7100   -0.2780 hn        1 MOL      0.216337
    158 H68        -3.5050   -3.3830    1.9370 h1        1 MOL      0.128445
    159 H69        -1.8640   -1.5710    2.3850 hc        1 MOL      0.009236
    160 H70        -2.7270   -0.4410    1.3680 hc        1 MOL      0.009236
    161 H71        -2.2460   -1.9040   -0.6160 hc        1 MOL      0.089143
    162 H72        -1.5370   -3.1480    0.4910 hc        1 MOL      0.089143
    163 N14        -5.2720   -0.5920    2.6150 n         1 MOL     -0.000634
    164 C55        -6.2620   -0.1650    3.6270 c3        1 MOL     -0.189598
    165 H73        -6.1550   -0.7790    4.5210 h1        1 MOL      0.064334
    166 H74        -6.0920    0.8800    3.8830 h1        1 MOL      0.064334
    167 H75        -7.2680   -0.2820    3.2250 h1        1 MOL      0.064334
    168 H76        -5.2480   -0.1830    1.7010 hn        1 MOL     -0.005887
    169 Ca1         1.8510    0.3020   -1.1580 Ca        1 MOL      1.733179
    170 O24         1.6770    2.5160   -2.7080 oh        1 MOL     -0.866645
    171 H77         0.7810    2.6280   -3.0440 ho        1 MOL      0.400441
    172 H78         1.8550    3.3260   -2.2250 ho        1 MOL      0.400441
@<TRIPOS>BOND
     1    1    2 1   
     2    1    4 1   
     3    1    5 1   
     4    1    6 1   
     5    2    3 2   
     6    2    7 1   
     7    7    8 1   
     8    7   15 1   
     9    8    9 1   
    10    8   11 1   
    11    8   16 1   
    12    9   10 2   
    13    9   19 1   
    14   11   12 1   
    15   11   17 1   
    16   11   18 1   
    17   12   13 1   
    18   12   14 1   
    19   19   20 1   
    20   19   24 1   
    21   20   21 1   
    22   20   23 1   
    23   20   25 1   
    24   21   22 2   
    25   21   29 1   
    26   23   26 1   
    27   23   27 1   
    28   23   28 1   
    29   29   30 1   
    30   29   37 1   
    31   30   31 1   
    32   30   33 1   
    33   30   38 1   
    34   31   32 2   
    35   31   41 1   
    36   33   34 1   
    37   33   39 1   
    38   33   40 1   
    39   34   35 1   
    40   34   36 1   
    41   41   42 1   
    42   41   45 1   
    43   42   43 1   
    44   42   46 1   
    45   42   47 1   
    46   43   44 2   
    47   43   48 1   
    48   48   49 1   
    49   48   56 1   
    50   49   50 1   
    51   49   52 1   
    52   49   57 1   
    53   50   51 2   
    54   50   62 1   
    55   52   53 1   
    56   52   58 1   
    57   52   59 1   
    58   53   54 1   
    59   53   55 2   
    60   54   60 1   
    61   54   61 1   
    62   62   63 1   
    63   62   66 1   
    64   63   64 1   
    65   63   67 1   
    66   63   68 1   
    67   64   65 2   
    68   64   69 1   
    69   69   70 1   
    70   69   76 1   
    71   70   71 1   
    72   70   73 1   
    73   70   77 1   
    74   71   72 2   
    75   71   83 1   
    76   73   74 1   
    77   73   75 1   
    78   73   78 1   
    79   74   80 1   
    80   74   81 1   
    81   74   82 1   
    82   75   79 1   
    83   83   84 1   
    84   83   91 1   
    85   84   85 1   
    86   84   87 1   
    87   84   92 1   
    88   85   86 2   
    89   85  102 1   
    90   87   88 1   
    91   87   89 1   
    92   87   93 1   
    93   88   90 1   
    94   88   94 1   
    95   88   95 1   
    96   89   96 1   
    97   89   97 1   
    98   89   98 1   
    99   90   99 1   
   100   90  100 1   
   101   90  101 1   
   102  102  103 1   
   103  102  110 1   
   104  103  104 1   
   105  103  106 1   
   106  103  111 1   
   107  104  105 2   
   108  104  114 1   
   109  106  107 1   
   110  106  112 1   
   111  106  113 1   
   112  107  108 1   
   113  107  109 1   
   114  114  115 1   
   115  114  125 1   
   116  115  116 1   
   117  115  118 1   
   118  115  126 1   
   119  116  117 2   
   120  116  134 1   
   121  118  119 1   
   122  118  127 1   
   123  118  128 1   
   124  119  120 ar  
   125  119  121 ar  
   126  120  122 ar  
   127  120  129 1   
   128  121  123 ar  
   129  121  130 1   
   130  122  124 ar  
   131  122  131 1   
   132  123  124 ar  
   133  123  132 1   
   134  124  133 1   
   135  134  135 1   
   136  134  140 1   
   137  135  136 1   
   138  135  138 1   
   139  135  141 1   
   140  136  137 2   
   141  136  148 1   
   142  138  139 1   
   143  138  142 1   
   144  138  143 1   
   145  139  140 1   
   146  139  144 1   
   147  139  145 1   
   148  140  146 1   
   149  140  147 1   
   150  148  149 1   
   151  148  157 1   
   152  149  150 1   
   153  149  152 1   
   154  149  158 1   
   155  150  151 2   
   156  150  163 1   
   157  152  153 1   
   158  152  159 1   
   159  152  160 1   
   160  153  154 1   
   161  153  161 1   
   162  153  162 1   
   163  154  155 1   
   164  154  156 1   
   165  163  164 1   
   166  163  168 1   
   167  164  165 1   
   168  164  166 1   
   169  164  167 1   
   170  170  171 1   
   171  170  172 1   
@<TRIPOS>SUBSTRUCTURE
     1 MOL         1 TEMP              0 ****  ****    0 ROOT
