@<TRIPOS>MOLECULE
MOL
  189   185     1     0     0
SMALL
resp


@<TRIPOS>ATOM
      1 C1          0.0490    3.3360   -4.7370 c3        1 MOL     -0.266187
      2 C2          0.7420    3.0360   -3.4200 c         1 MOL      0.666542
      3 O1          0.2350    3.4990   -2.3890 o         1 MOL     -0.572632
      4 H1         -1.0310    3.2870   -4.5990 hc        1 MOL      0.070069
      5 H2          0.3270    4.3350   -5.0750 hc        1 MOL      0.070069
      6 H3          0.3530    2.6030   -5.4840 hc        1 MOL      0.070069
      7 N1          1.8480    2.3010   -3.4520 n         1 MOL     -0.581346
      8 C3          2.4700    1.6880   -2.2520 c3        1 MOL      0.472406
      9 C4          3.3960    2.6450   -1.4510 c         1 MOL      0.089136
     10 O2          4.5960    2.7340   -1.7680 o         1 MOL     -0.427494
     11 C5          3.2290    0.4130   -2.7190 c3        1 MOL     -0.232374
     12 C6          3.8550   -0.2530   -1.4950 c         1 MOL      0.584658
     13 O3          5.0100   -0.6970   -1.6100 o         1 MOL     -0.612484
     14 O4          3.2750   -0.2560   -0.3450 o         1 MOL     -0.612484
     15 H4          2.1550    1.9930   -4.3600 hn        1 MOL      0.294721
     16 H5          1.6590    1.2880   -1.6330 h1        1 MOL     -0.084946
     17 H6          3.9730    0.7210   -3.4540 hc        1 MOL      0.069430
     18 H7          2.5090   -0.2480   -3.2030 hc        1 MOL      0.069430
     19 N2          2.8110    3.5060   -0.5890 n         1 MOL     -0.014446
     20 C7          3.5330    4.6770    0.0350 c3        1 MOL      0.065722
     21 C8          4.3120    4.4520    1.3170 c         1 MOL      0.369290
     22 O5          5.4110    5.0090    1.5240 o         1 MOL     -0.523882
     23 C9          2.6560    5.9060    0.0890 c3        1 MOL     -0.107117
     24 C10         2.0390    6.3960   -1.2740 c3        1 MOL      0.189698
     25 C11         2.9350    6.4440   -2.4560 c3        1 MOL     -0.306267
     26 C12         4.1140    7.3970   -2.1270 c3        1 MOL      0.016712
     27 N3          3.7460    8.8500   -2.1050 n4        1 MOL     -0.299183
     28 H8          1.8080    3.3890   -0.5080 hn        1 MOL      0.215390
     29 H9          4.3380    4.8820   -0.6780 h1        1 MOL      0.054208
     30 H10         3.2250    6.7400    0.4900 hc        1 MOL      0.023499
     31 H11         1.8180    5.8190    0.7900 hc        1 MOL      0.023499
     32 H12         1.6840    7.4190   -1.1800 hc        1 MOL     -0.029532
     33 H13         1.1610    5.8040   -1.5350 hc        1 MOL     -0.029532
     34 H14         2.4150    6.7120   -3.3710 hc        1 MOL      0.118347
     35 H15         3.3550    5.4810   -2.7350 hc        1 MOL      0.118347
     36 H16         4.9160    7.3040   -2.8620 hx        1 MOL      0.103741
     37 H17         4.4860    7.1660   -1.1240 hx        1 MOL      0.103741
     38 H18         3.2080    9.1080   -1.2940 hn        1 MOL      0.306786
     39 H19         4.4690    9.5520   -2.0920 hn        1 MOL      0.306786
     40 H20         3.1420    8.9900   -2.9030 hn        1 MOL      0.306786
     41 N4          3.8490    3.5390    2.1950 n         1 MOL     -0.302455
     42 C13         4.6540    2.8000    3.1840 c3        1 MOL      0.080978
     43 C14         5.7040    1.8640    2.5310 c         1 MOL      0.336552
     44 O6          6.6300    1.4860    3.2580 o         1 MOL     -0.500399
     45 C15         3.7800    2.1830    4.2370 c3        1 MOL     -0.376185
     46 C16         2.7460    1.1820    3.8280 c         1 MOL      0.963931
     47 O7          1.7650    1.0990    4.5610 o         1 MOL     -0.774398
     48 O8          2.8680    0.4280    2.8400 o         1 MOL     -0.774398
     49 H21         2.9000    3.2360    2.0530 hn        1 MOL      0.213588
     50 H22         5.1410    3.6450    3.6690 h1        1 MOL      0.098731
     51 H23         3.2490    3.0130    4.7130 hc        1 MOL      0.086727
     52 H24         4.4520    1.7080    4.9490 hc        1 MOL      0.086727
     53 N5          5.5800    1.6200    1.2390 n         1 MOL      0.032542
     54 C17         6.6280    1.0170    0.4080 c3        1 MOL     -0.095659
     55 C18         6.9400   -0.4220    0.8880 c         1 MOL      0.494103
     56 O9          8.1130   -0.7200    1.0420 o         1 MOL     -0.573149
     57 H25         4.7950    1.8480    0.6420 hn        1 MOL     -0.025496
     58 H26         7.5780    1.5360    0.3200 h1        1 MOL      0.083974
     59 H27         6.3030    1.0040   -0.6310 h1        1 MOL      0.083974
     60 N6          5.9200   -1.2540    1.1140 n         1 MOL     -0.152113
     61 C19         6.1070   -2.6080    1.5990 c3        1 MOL     -0.074659
     62 C20         6.2730   -3.6890    0.4170 c         1 MOL      0.384341
     63 O10         6.6380   -4.8260    0.6600 o         1 MOL     -0.518281
     64 C21         5.1520   -3.0550    2.7200 c3        1 MOL     -0.127014
     65 C22         3.6330   -2.8780    2.3310 c         1 MOL      0.688703
     66 O11         2.7250   -2.5970    3.1840 o         1 MOL     -0.723960
     67 O12         3.3840   -3.0490    1.1380 o         1 MOL     -0.723960
     68 H28         5.0120   -1.0020    0.7510 hn        1 MOL      0.074597
     69 H29         7.0450   -2.5450    2.1400 h1        1 MOL      0.119102
     70 H30         5.2620   -2.3860    3.5760 hc        1 MOL      0.054186
     71 H31         5.3660   -4.0430    3.1410 hc        1 MOL      0.054186
     72 N7          5.9540   -3.2310   -0.8060 n         1 MOL     -0.211586
     73 C23         5.8060   -4.1750   -1.9290 c3        1 MOL     -0.027499
     74 C24         4.3980   -4.7210   -1.9640 c         1 MOL      0.580199
     75 O13         4.3290   -5.7640   -2.5810 o         1 MOL     -0.593374
     76 H32         5.5970   -2.2880   -0.8200 hn        1 MOL      0.182255
     77 H33         6.6680   -4.8390   -1.9000 h1        1 MOL      0.063831
     78 H34         5.9600   -3.6060   -2.8510 h1        1 MOL      0.063831
     79 N8          3.2830   -4.2220   -1.4100 n         1 MOL     -0.329400
     80 C25         1.9040   -4.7630   -1.5090 c3        1 MOL     -0.316040
     81 C26         0.9580   -3.5200   -1.4450 c         1 MOL      0.627361
     82 O14         1.2800   -2.4860   -0.8780 o         1 MOL     -0.643928
     83 C27         1.4810   -5.6310   -0.3520 c3        1 MOL      0.646133
     84 C28         1.8310   -7.0810   -0.6750 c3        1 MOL     -0.435164
     85 O15         2.2850   -5.3890    0.8070 oh        1 MOL     -0.758140
     86 H35         3.3950   -3.4030   -0.8270 hn        1 MOL      0.319872
     87 H36         1.8120   -5.3480   -2.4270 h1        1 MOL      0.148234
     88 H37         0.4110   -5.6140   -0.1440 h1        1 MOL     -0.072643
     89 H38         2.7620   -4.5550    0.7990 ho        1 MOL      0.529564
     90 H39         1.5890   -7.7030    0.1900 hc        1 MOL      0.099233
     91 H40         1.2320   -7.4080   -1.5240 hc        1 MOL      0.099233
     92 H41         2.8760   -7.1110   -0.9870 hc        1 MOL      0.099233
     93 N9         -0.1060   -3.6550   -2.2170 n         1 MOL     -0.530641
     94 C29        -1.1750   -2.6330   -2.3380 c3        1 MOL      0.044771
     95 C30        -2.4240   -3.0220   -1.5530 c         1 MOL      0.393950
     96 O16        -2.9940   -4.1210   -1.8210 o         1 MOL     -0.555310
     97 C31        -1.6260   -2.2850   -3.8300 c3        1 MOL      0.122458
     98 C32        -0.3890   -2.1570   -4.7780 c3        1 MOL      0.111612
     99 C33        -2.4940   -1.0240   -3.6880 c3        1 MOL     -0.304746
    100 C34        -0.8180   -1.8310   -6.2260 c3        1 MOL     -0.164589
    101 H42        -0.1990   -4.5070   -2.7490 hn        1 MOL      0.296210
    102 H43        -0.7720   -1.7460   -1.8450 h1        1 MOL      0.094066
    103 H44        -2.2690   -3.0930   -4.1610 hc        1 MOL      0.021150
    104 H45         0.0930   -3.1380   -4.8180 hc        1 MOL     -0.017866
    105 H46         0.4450   -1.4870   -4.5600 hc        1 MOL     -0.017866
    106 H47        -1.8790   -0.3370   -3.1060 hc        1 MOL      0.054929
    107 H48        -2.8010   -0.6380   -4.6580 hc        1 MOL      0.054929
    108 H49        -3.3910   -1.3210   -3.1440 hc        1 MOL      0.054929
    109 H50         0.0460   -1.8460   -6.8890 hc        1 MOL      0.036360
    110 H51        -1.4850   -2.6210   -6.5790 hc        1 MOL      0.036360
    111 H52        -1.2830   -0.8360   -6.2690 hc        1 MOL      0.036360
    112 N10        -2.9240   -2.2200   -0.6430 n         1 MOL     -0.141754
    113 C35        -4.1070   -2.3530    0.2050 c3        1 MOL     -0.007102
    114 C36        -5.3500   -1.7830   -0.4140 c         1 MOL      0.338330
    115 O17        -5.1850   -0.8750   -1.2250 o         1 MOL     -0.345804
    116 C37        -3.8900   -1.7940    1.6170 c3        1 MOL      0.222173
    117 C38        -3.0000   -2.7210    2.5350 c3        1 MOL     -0.550058
    118 O18        -3.3300   -0.5170    1.6970 oh        1 MOL     -0.543244
    119 H53        -2.3120   -1.4530   -0.3670 hn        1 MOL      0.263494
    120 H54        -4.3580   -3.3890    0.4070 h1        1 MOL      0.057012
    121 H55        -4.8060   -1.8640    2.2120 h1        1 MOL      0.017261
    122 H56        -2.4750   -0.6270    1.2680 ho        1 MOL      0.331381
    123 H57        -3.2440   -3.7880    2.5160 hc        1 MOL      0.147311
    124 H58        -1.9360   -2.6350    2.3140 hc        1 MOL      0.147311
    125 H59        -3.1460   -2.3700    3.5560 hc        1 MOL      0.147311
    126 N11        -6.5370   -2.0590    0.0890 n         1 MOL     -0.142117
    127 C39        -7.8650   -1.4000   -0.3280 c3        1 MOL     -0.308164
    128 C40        -7.8310    0.0860   -0.0830 c         1 MOL      0.414120
    129 O19        -8.3520    0.8700   -0.9080 o         1 MOL     -0.471148
    130 C41        -9.0550   -2.0320    0.3660 c3        1 MOL      0.475563
    131 C42       -10.4170   -1.6390   -0.2900 c3        1 MOL     -0.543943
    132 O20        -8.8040   -3.4080    0.4140 oh        1 MOL     -0.552481
    133 H60        -6.6550   -2.7850    0.7730 hn        1 MOL      0.175330
    134 H61        -8.0030   -1.6790   -1.3730 h1        1 MOL      0.198840
    135 H62        -9.1220   -1.6420    1.3860 h1        1 MOL     -0.059839
    136 H63        -9.4340   -3.6200    1.1000 ho        1 MOL      0.362081
    137 H64       -10.5510   -0.5750   -0.5190 hc        1 MOL      0.152665
    138 H65       -10.5710   -2.2650   -1.1610 hc        1 MOL      0.152665
    139 H66       -11.2840   -1.8070    0.3450 hc        1 MOL      0.152665
    140 N12        -7.0720    0.5640    0.9300 n         1 MOL     -0.241382
    141 C43        -6.8780    1.9750    1.3150 c3        1 MOL     -0.067320
    142 C44        -6.0560    2.7450    0.3440 c         1 MOL      0.355798
    143 O21        -6.4800    3.8280   -0.1450 o         1 MOL     -0.466630
    144 C45        -6.2140    2.1130    2.7090 c3        1 MOL     -0.180506
    145 C46        -7.1860    1.7470    3.8910 c3        1 MOL      0.403073
    146 C47        -6.5350    1.9280    5.2400 c3        1 MOL     -0.214749
    147 C48        -5.4320    0.9080    5.4920 c3        1 MOL      0.134965
    148 N13        -4.8800    0.9010    6.8500 n4        1 MOL     -0.406576
    149 H67        -6.7490   -0.1930    1.5180 hn        1 MOL      0.197678
    150 H68        -7.8500    2.4640    1.3260 h1        1 MOL      0.113968
    151 H69        -5.8970    3.1470    2.7890 hc        1 MOL      0.054986
    152 H70        -5.3880    1.3920    2.7130 hc        1 MOL      0.054986
    153 H71        -7.4920    0.7050    3.8870 hc        1 MOL     -0.072060
    154 H72        -8.0790    2.3630    3.9380 hc        1 MOL     -0.072060
    155 H73        -7.2920    1.8500    6.0170 hc        1 MOL      0.060073
    156 H74        -6.1590    2.9520    5.2700 hc        1 MOL      0.060073
    157 H75        -4.6600    1.1080    4.7580 hx        1 MOL      0.053350
    158 H76        -5.8640   -0.0610    5.2610 hx        1 MOL      0.053350
    159 H77        -5.5920    0.9140    7.5580 hn        1 MOL      0.343616
    160 H78        -4.2050    0.1720    7.0470 hn        1 MOL      0.343616
    161 H79        -4.4000    1.7760    7.0120 hn        1 MOL      0.343616
    162 N14        -4.8870    2.1860   -0.0600 n         1 MOL     -0.208132
    163 C49        -3.9770    2.6840   -1.0870 c3        1 MOL     -0.024364
    164 C50        -4.5820    2.6110   -2.4750 c         1 MOL      0.355104
    165 O22        -4.5450    3.5910   -3.2730 o         1 MOL     -0.528614
    166 C51        -2.7900    1.7070   -1.0250 c3        1 MOL     -0.021551
    167 C52        -1.8740    2.0180    0.1140 c3        1 MOL     -0.462001
    168 C53        -0.7880    0.9380    0.2420 c         1 MOL      1.118853
    169 O23        -1.0590   -0.2970    0.3540 o         1 MOL     -0.873470
    170 O24         0.3520    1.2900    0.5040 o         1 MOL     -0.873470
    171 H80        -4.6540    1.2870    0.3480 hn        1 MOL      0.256343
    172 H81        -3.6880    3.7300   -0.9840 h1        1 MOL      0.096636
    173 H82        -2.1970    1.8870   -1.9240 hc        1 MOL      0.046000
    174 H83        -3.1560    0.6900   -0.9260 hc        1 MOL      0.046000
    175 H84        -2.4050    2.1260    1.0580 hc        1 MOL      0.108272
    176 H85        -1.3570    2.9480   -0.1570 hc        1 MOL      0.108272
    177 N15        -5.3280    1.5110   -2.7320 n         1 MOL      0.047125
    178 C54        -5.9230    1.2860   -4.0460 c3        1 MOL     -0.378530
    179 H86        -6.9470    1.6590   -4.0500 h1        1 MOL      0.123544
    180 H87        -5.3420    1.8120   -4.8030 h1        1 MOL      0.123544
    181 H88        -5.9260    0.2180   -4.2660 h1        1 MOL      0.123544
    182 H89        -5.3800    0.7050   -2.1130 hn        1 MOL      0.100478
    183 Ca1         1.4290   -1.0370    1.2990 Ca        1 MOL      1.781594
    184 O25         0.4210   -3.4270    1.9910 oh        1 MOL     -0.844317
    185 H90        -0.3190   -3.8670    2.4020 ho        1 MOL      0.392368
    186 H91         1.1750   -3.9890    2.1620 ho        1 MOL      0.392368
    187 O26        -0.0180   -0.5430    3.6160 oh        1 MOL     -0.844317
    188 H92        -0.2130   -1.1730    4.3020 ho        1 MOL      0.392368
    189 H93         0.3780    0.2020    4.0780 ho        1 MOL      0.392368
@<TRIPOS>BOND
     1    1    2 1   
     2    1    4 1   
     3    1    5 1   
     4    1    6 1   
     5    2    3 2   
     6    2    7 1   
     7    7    8 1   
     8    7   15 1   
     9    8    9 1   
    10    8   11 1   
    11    8   16 1   
    12    9   10 2   
    13    9   19 1   
    14   11   12 1   
    15   11   17 1   
    16   11   18 1   
    17   12   13 1   
    18   12   14 1   
    19   19   20 1   
    20   19   28 1   
    21   20   21 1   
    22   20   23 1   
    23   20   29 1   
    24   21   22 2   
    25   21   41 1   
    26   23   24 1   
    27   23   30 1   
    28   23   31 1   
    29   24   25 1   
    30   24   32 1   
    31   24   33 1   
    32   25   26 1   
    33   25   34 1   
    34   25   35 1   
    35   26   27 1   
    36   26   36 1   
    37   26   37 1   
    38   27   38 1   
    39   27   39 1   
    40   27   40 1   
    41   41   42 1   
    42   41   49 1   
    43   42   43 1   
    44   42   45 1   
    45   42   50 1   
    46   43   44 2   
    47   43   53 1   
    48   45   46 1   
    49   45   51 1   
    50   45   52 1   
    51   46   47 1   
    52   46   48 1   
    53   53   54 1   
    54   53   57 1   
    55   54   55 1   
    56   54   58 1   
    57   54   59 1   
    58   55   56 2   
    59   55   60 1   
    60   60   61 1   
    61   60   68 1   
    62   61   62 1   
    63   61   64 1   
    64   61   69 1   
    65   62   63 2   
    66   62   72 1   
    67   64   65 1   
    68   64   70 1   
    69   64   71 1   
    70   65   66 1   
    71   65   67 1   
    72   72   73 1   
    73   72   76 1   
    74   73   74 1   
    75   73   77 1   
    76   73   78 1   
    77   74   75 2   
    78   74   79 1   
    79   79   80 1   
    80   79   86 1   
    81   80   81 1   
    82   80   83 1   
    83   80   87 1   
    84   81   82 2   
    85   81   93 1   
    86   83   84 1   
    87   83   85 1   
    88   83   88 1   
    89   84   90 1   
    90   84   91 1   
    91   84   92 1   
    92   85   89 1   
    93   93   94 1   
    94   93  101 1   
    95   94   95 1   
    96   94   97 1   
    97   94  102 1   
    98   95   96 2   
    99   95  112 1   
   100   97   98 1   
   101   97   99 1   
   102   97  103 1   
   103   98  100 1   
   104   98  104 1   
   105   98  105 1   
   106   99  106 1   
   107   99  107 1   
   108   99  108 1   
   109  100  109 1   
   110  100  110 1   
   111  100  111 1   
   112  112  113 1   
   113  112  119 1   
   114  113  114 1   
   115  113  116 1   
   116  113  120 1   
   117  114  115 2   
   118  114  126 1   
   119  116  117 1   
   120  116  118 1   
   121  116  121 1   
   122  117  123 1   
   123  117  124 1   
   124  117  125 1   
   125  118  122 1   
   126  126  127 1   
   127  126  133 1   
   128  127  128 1   
   129  127  130 1   
   130  127  134 1   
   131  128  129 2   
   132  128  140 1   
   133  130  131 1   
   134  130  132 1   
   135  130  135 1   
   136  131  137 1   
   137  131  138 1   
   138  131  139 1   
   139  132  136 1   
   140  140  141 1   
   141  140  149 1   
   142  141  142 1   
   143  141  144 1   
   144  141  150 1   
   145  142  143 2   
   146  142  162 1   
   147  144  145 1   
   148  144  151 1   
   149  144  152 1   
   150  145  146 1   
   151  145  153 1   
   152  145  154 1   
   153  146  147 1   
   154  146  155 1   
   155  146  156 1   
   156  147  148 1   
   157  147  157 1   
   158  147  158 1   
   159  148  159 1   
   160  148  160 1   
   161  148  161 1   
   162  162  163 1   
   163  162  171 1   
   164  163  164 1   
   165  163  166 1   
   166  163  172 1   
   167  164  165 2   
   168  164  177 1   
   169  166  167 1   
   170  166  173 1   
   171  166  174 1   
   172  167  168 1   
   173  167  175 1   
   174  167  176 1   
   175  168  169 1   
   176  168  170 1   
   177  177  178 1   
   178  177  182 1   
   179  178  179 1   
   180  178  180 1   
   181  178  181 1   
   182  184  185 1   
   183  184  186 1   
   184  187  188 1   
   185  187  189 1   
@<TRIPOS>SUBSTRUCTURE
     1 MOL         1 TEMP              0 ****  ****    0 ROOT
