@<TRIPOS>MOLECULE
MOL
  186   183     1     0     0
SMALL
resp


@<TRIPOS>ATOM
      1 C1          0.4890   -2.0810    6.2890 c3        1 MOL     -0.338184
      2 C2          0.7400   -2.3760    4.7910 c         1 MOL      0.731801
      3 O1         -0.0820   -2.8930    4.0490 o         1 MOL     -0.571659
      4 H1          1.3640   -1.5890    6.7140 hc        1 MOL      0.072257
      5 H2         -0.3800   -1.4290    6.3910 hc        1 MOL      0.072257
      6 H3          0.3060   -3.0150    6.8190 hc        1 MOL      0.072257
      7 N1          1.9820   -2.1550    4.4090 n         1 MOL     -0.616963
      8 C3          2.4700   -1.9790    3.0230 c3        1 MOL      0.402652
      9 C4          2.9350   -3.2720    2.3930 c         1 MOL      0.370276
     10 O2          3.8000   -3.9340    3.0050 o         1 MOL     -0.581409
     11 C5          3.4550   -0.8160    2.9250 c3        1 MOL     -0.410773
     12 C6          4.3180   -0.7900    1.6950 c         1 MOL      0.865376
     13 O3          5.4560   -0.2860    1.7970 o         1 MOL     -0.686442
     14 O4          3.8780   -1.1920    0.6160 o         1 MOL     -0.686442
     15 H4          2.5610   -1.8020    5.1650 hn        1 MOL      0.317523
     16 H5          1.7740   -1.6610    2.2390 h1        1 MOL     -0.054988
     17 H6          4.1450   -1.0110    3.7440 hc        1 MOL      0.065326
     18 H7          3.0330    0.1600    3.1460 hc        1 MOL      0.065326
     19 N2          2.4140   -3.7380    1.2450 n         1 MOL     -0.160198
     20 C7          2.6320   -5.0810    0.6110 c3        1 MOL     -0.133532
     21 C8          3.7450   -5.0050   -0.4570 c         1 MOL      0.569238
     22 O5          4.1440   -6.1180   -0.9480 o         1 MOL     -0.584909
     23 C9          1.2990   -5.5900    0.0810 c3        1 MOL      0.336499
     24 C10         0.2850   -5.6210    1.2820 c3        1 MOL      0.173775
     25 C11         1.3430   -6.9800   -0.5460 c3        1 MOL     -0.252639
     26 C12        -1.1490   -5.9220    0.7750 c3        1 MOL     -0.210031
     27 H8          1.9450   -3.0050    0.7370 hn        1 MOL      0.119235
     28 H9          3.0340   -5.7070    1.4080 h1        1 MOL      0.075078
     29 H10         0.9020   -4.8920   -0.6580 hc        1 MOL     -0.016242
     30 H11         0.2560   -4.6490    1.7570 hc        1 MOL     -0.067081
     31 H12         0.6520   -6.3880    1.9660 hc        1 MOL     -0.067081
     32 H13         0.3720   -7.4210   -0.7760 hc        1 MOL      0.035449
     33 H14         1.9390   -6.9250   -1.4570 hc        1 MOL      0.035449
     34 H15         1.8690   -7.6820    0.1020 hc        1 MOL      0.035449
     35 H16        -1.3740   -5.3270   -0.1170 hc        1 MOL      0.035976
     36 H17        -1.2220   -7.0040    0.6610 hc        1 MOL      0.035976
     37 H18        -1.8080   -5.6640    1.6040 hc        1 MOL      0.035976
     38 N3          4.3550   -3.8690   -0.9040 n         1 MOL     -0.478582
     39 C13         5.4260   -3.8220   -1.9010 c3        1 MOL     -0.026164
     40 C14         6.6030   -2.8800   -1.5170 c         1 MOL      0.572608
     41 O6          7.5070   -2.7960   -2.3040 o         1 MOL     -0.554801
     42 C15         4.8970   -3.5450   -3.3280 c3        1 MOL     -0.051063
     43 C16         3.9540   -2.3070   -3.4500 c         1 MOL      0.636159
     44 O7          3.7100   -1.5770   -2.4490 o         1 MOL     -0.691598
     45 O8          3.5020   -1.9820   -4.5810 o         1 MOL     -0.691598
     46 H19         4.0530   -2.9530   -0.6220 hn        1 MOL      0.267578
     47 H20         5.7880   -4.8440   -2.0360 h1        1 MOL      0.087315
     48 H21         4.3630   -4.4260   -3.6690 hc        1 MOL      0.026498
     49 H22         5.6750   -3.5460   -4.0980 hc        1 MOL      0.026498
     50 N4          6.6010   -2.3400   -0.2600 n         1 MOL     -0.425250
     51 C17         7.7620   -1.6870    0.4420 c3        1 MOL     -0.169697
     52 C18         7.9980   -0.2530   -0.0010 c         1 MOL      0.589670
     53 O9          9.1340    0.2080    0.2820 o         1 MOL     -0.621628
     54 H23         5.7280   -2.0740    0.1750 hn        1 MOL      0.273216
     55 H24         8.6990   -2.2140    0.2890 h1        1 MOL      0.107695
     56 H25         7.5470   -1.6050    1.5060 h1        1 MOL      0.107695
     57 N5          7.0630    0.3950   -0.7460 n         1 MOL     -0.309417
     58 C19         7.2250    1.8060   -1.1950 c3        1 MOL      0.000402
     59 C20         7.0130    2.8010   -0.0380 c         1 MOL      0.394382
     60 O10         7.1580    4.0600   -0.1900 o         1 MOL     -0.567892
     61 C21         6.2600    2.1130   -2.3680 c3        1 MOL     -0.230160
     62 C22         4.8530    1.7370   -2.0550 c         1 MOL      0.874240
     63 O11         4.0010    1.5470   -2.9660 o         1 MOL     -0.773733
     64 O12         4.4130    1.6840   -0.8710 o         1 MOL     -0.773733
     65 H26         6.1190    0.0390   -0.6760 hn        1 MOL      0.181809
     66 H27         8.2380    1.8470   -1.5700 h1        1 MOL      0.106885
     67 H28         6.5750    1.5460   -3.2490 hc        1 MOL      0.067145
     68 H29         6.3370    3.1670   -2.6230 hc        1 MOL      0.067145
     69 N6          6.6300    2.3560    1.1460 n         1 MOL     -0.222097
     70 C23         6.3270    3.2360    2.2990 c3        1 MOL      0.005723
     71 C24         5.1010    4.1080    2.0060 c         1 MOL      0.457151
     72 O13         4.8790    5.1660    2.6150 o         1 MOL     -0.608716
     73 H30         6.4090    1.3710    1.2310 hn        1 MOL      0.216257
     74 H31         7.1860    3.8230    2.6450 h1        1 MOL      0.051612
     75 H32         6.0580    2.6290    3.1580 h1        1 MOL      0.051612
     76 N7          4.1980    3.6120    1.1690 n         1 MOL     -0.221846
     77 C25         2.8770    4.1910    1.0030 c3        1 MOL      0.283388
     78 C26         1.8130    3.1340    1.0160 c         1 MOL      0.265912
     79 O14         2.0200    1.9220    0.9120 o         1 MOL     -0.495992
     80 C27         2.8330    5.1690   -0.1670 c3        1 MOL      0.062911
     81 C28         3.4820    6.5360    0.0990 c3        1 MOL     -0.304396
     82 C29         3.1190    7.3630   -1.1670 c         1 MOL      0.641450
     83 N8          4.0160    7.6940   -2.0640 n         1 MOL     -0.768756
     84 O15         2.0270    7.9090   -1.2910 o         1 MOL     -0.584088
     85 H33         4.3620    2.6770    0.8020 hn        1 MOL      0.164428
     86 H34         2.6250    4.8450    1.8370 h1        1 MOL     -0.020331
     87 H35         1.7620    5.2710   -0.3300 hc        1 MOL     -0.024411
     88 H36         3.3120    4.6200   -0.9800 hc        1 MOL     -0.024411
     89 H37         4.5440    6.3670    0.2670 hc        1 MOL      0.106526
     90 H38         2.9720    6.9990    0.9490 hc        1 MOL      0.106526
     91 H39         4.9280    7.2810   -1.9710 hn        1 MOL      0.356775
     92 H40         3.6680    8.2010   -2.8670 hn        1 MOL      0.356775
     93 N9          0.6000    3.5820    1.3020 n         1 MOL     -0.154543
     94 C30        -0.6040    2.7530    1.4860 c3        1 MOL     -0.492960
     95 C31        -1.6490    3.1880    0.5450 c         1 MOL      0.620207
     96 O16        -2.2190    4.2260    0.6750 o         1 MOL     -0.552474
     97 C32        -1.0480    2.8770    3.0260 c3        1 MOL      0.319855
     98 C33        -2.2960    2.0290    3.2810 c3        1 MOL     -0.318329
     99 C34         0.0190    2.3400    4.0310 c3        1 MOL     -0.318329
    100 H41         0.5380    4.5600    1.5150 hn        1 MOL      0.259199
    101 H42        -0.3780    1.6920    1.4300 h1        1 MOL      0.263734
    102 H43        -1.2200    3.9210    3.2820 hc        1 MOL     -0.030452
    103 H44        -2.0210    1.0050    3.0490 hc        1 MOL      0.071941
    104 H45        -2.6110    2.1120    4.3170 hc        1 MOL      0.071941
    105 H46        -3.1050    2.4750    2.7030 hc        1 MOL      0.071941
    106 H47        -0.3710    2.4510    5.0520 hc        1 MOL      0.071941
    107 H48         0.2810    1.3140    3.7820 hc        1 MOL      0.071941
    108 H49         0.8450    3.0450    3.9970 hc        1 MOL      0.071941
    109 N10        -1.9190    2.3310   -0.4680 n         1 MOL     -0.407266
    110 C35        -3.1600    2.4230   -1.3360 c3        1 MOL      0.045054
    111 C36        -4.4330    1.8730   -0.6070 c         1 MOL      0.397044
    112 O17        -4.3090    1.2270    0.4010 o         1 MOL     -0.290744
    113 C37        -2.7680    1.6640   -2.6220 c3        1 MOL     -0.210599
    114 C38        -3.8450    1.8410   -3.6460 c         1 MOL      0.692292
    115 N11        -3.9070    2.8890   -4.3580 n         1 MOL     -0.763307
    116 O18        -4.7260    0.9660   -3.7320 o         1 MOL     -0.574932
    117 H50        -1.3240    1.5070   -0.5270 hn        1 MOL      0.327933
    118 H51        -3.3480    3.4640   -1.6000 h1        1 MOL      0.038434
    119 H52        -2.6650    0.6150   -2.3350 hc        1 MOL      0.068295
    120 H53        -1.8470    1.9970   -3.0930 hc        1 MOL      0.068295
    121 H54        -3.2000    3.5940   -4.1710 hn        1 MOL      0.362012
    122 H55        -4.6300    2.9190   -5.0630 hn        1 MOL      0.362012
    123 N12        -5.6270    2.0730   -1.1200 n         1 MOL     -0.528207
    124 C39        -6.8620    1.6120   -0.4190 c3        1 MOL      0.245210
    125 C40        -6.8860    0.1250   -0.3770 c         1 MOL      0.558218
    126 O19        -7.3660   -0.5090    0.6230 o         1 MOL     -0.559722
    127 C41        -8.0480    2.2070   -1.1400 c3        1 MOL     -0.125458
    128 C42        -9.4200    1.9110   -0.4320 ca        1 MOL      0.002229
    129 C43        -9.8010    2.4020    0.8040 ca        1 MOL     -0.154992
    130 C44       -10.3290    1.1640   -1.1610 ca        1 MOL     -0.154992
    131 C45       -11.0030    2.0650    1.3870 ca        1 MOL     -0.240144
    132 C46       -11.6000    0.8640   -0.6840 ca        1 MOL     -0.240144
    133 C47       -11.9260    1.2510    0.6420 ca        1 MOL      0.334838
    134 O20       -13.0640    0.9860    1.2410 oh        1 MOL     -0.501632
    135 H56        -5.7710    2.5670   -1.9900 hn        1 MOL      0.271476
    136 H57        -6.7940    2.1090    0.5480 h1        1 MOL      0.054067
    137 H58        -8.0090    1.8210   -2.1530 hc        1 MOL      0.044179
    138 H59        -7.9410    3.2830   -1.2590 hc        1 MOL      0.044179
    139 H60        -9.2050    3.0650    1.4100 ha        1 MOL      0.136109
    140 H61       -10.1000    0.8080   -2.1520 ha        1 MOL      0.136109
    141 H62       -11.2810    2.3840    2.3820 ha        1 MOL      0.130308
    142 H63       -12.2890    0.3530   -1.3360 ha        1 MOL      0.130308
    143 H64       -13.6460    0.3240    0.8600 ho        1 MOL      0.378074
    144 N13        -6.2710   -0.6170   -1.2790 n         1 MOL     -0.501225
    145 C48        -6.2430   -2.1090   -1.2220 c3        1 MOL      0.048286
    146 C49        -5.4360   -2.6200    0.0230 c         1 MOL      0.357005
    147 O21        -5.6920   -3.7470    0.4900 o         1 MOL     -0.513343
    148 C50        -5.8040   -2.7990   -2.5160 c3        1 MOL     -0.090724
    149 C51        -4.2790   -2.7590   -2.7210 c3        1 MOL     -0.041809
    150 C52        -3.8830   -3.4520   -4.0200 c         1 MOL      0.679312
    151 O22        -4.1510   -2.7710   -4.9940 o         1 MOL     -0.733337
    152 O23        -3.2620   -4.5410   -4.0910 o         1 MOL     -0.733337
    153 H65        -5.9070   -0.1800   -2.1150 hn        1 MOL      0.314136
    154 H66        -7.2390   -2.5000   -1.0480 h1        1 MOL      0.059874
    155 H67        -6.2960   -2.5520   -3.4450 hc        1 MOL      0.037688
    156 H68        -6.0950   -3.8170   -2.2640 hc        1 MOL      0.037688
    157 H69        -3.7400   -3.2980   -1.9240 hc        1 MOL     -0.009044
    158 H70        -3.9200   -1.7310   -2.7750 hc        1 MOL     -0.009044
    159 N14        -4.3770   -1.9070    0.4160 n         1 MOL     -0.090697
    160 C53        -3.5720   -2.1120    1.6370 c3        1 MOL     -0.146039
    161 C54        -4.3410   -1.5700    2.8910 c         1 MOL      0.486604
    162 O24        -4.2650   -2.1530    3.9720 o         1 MOL     -0.557112
    163 C55        -2.2140   -1.3170    1.4490 c3        1 MOL      0.069463
    164 C56        -1.2620   -2.0410    0.5150 c3        1 MOL      0.067124
    165 C57        -0.0250   -1.3120    0.1020 c         1 MOL      0.598927
    166 O25         0.9990   -1.9430   -0.2800 o         1 MOL     -0.684279
    167 O26        -0.0640   -0.0450    0.0410 o         1 MOL     -0.684279
    168 H71        -4.0290   -1.3030   -0.3250 hn        1 MOL      0.191093
    169 H72        -3.2920   -3.1570    1.7620 h1        1 MOL      0.100889
    170 H73        -1.6890   -1.0770    2.3710 hc        1 MOL      0.020819
    171 H74        -2.4950   -0.3950    0.9370 hc        1 MOL      0.020819
    172 H75        -1.7690   -2.2620   -0.4240 hc        1 MOL     -0.003208
    173 H76        -0.9890   -3.0290    0.8830 hc        1 MOL     -0.003208
    174 N15        -5.1390   -0.4740    2.7520 n         1 MOL     -0.077970
    175 C58        -5.9450    0.1090    3.8400 c3        1 MOL     -0.226089
    176 H77        -5.2890    0.6260    4.5410 h1        1 MOL      0.079145
    177 H78        -6.6610    0.8170    3.4240 h1        1 MOL      0.079145
    178 H79        -6.4800   -0.6850    4.3620 h1        1 MOL      0.079145
    179 H80        -5.0520    0.0840    1.9060 hn        1 MOL      0.039327
    180 Ca1         2.3670    0.1230   -1.1320 Ca        1 MOL      1.728422
    181 O27         0.6220   -0.1790   -3.3830 oh        1 MOL     -0.874612
    182 H81        -0.0450   -0.0170   -4.0510 ho        1 MOL      0.424690
    183 H82         0.9120   -1.0750   -3.5490 ho        1 MOL      0.424690
    184 O28         0.9230    2.1740   -2.0370 oh        1 MOL     -0.874612
    185 H83         1.4100    2.9160   -2.3930 ho        1 MOL      0.424690
    186 H84         0.3610    1.9000   -2.7680 ho        1 MOL      0.424690
@<TRIPOS>BOND
     1    1    2 1   
     2    1    4 1   
     3    1    5 1   
     4    1    6 1   
     5    2    3 2   
     6    2    7 1   
     7    7    8 1   
     8    7   15 1   
     9    8    9 1   
    10    8   11 1   
    11    8   16 1   
    12    9   10 2   
    13    9   19 1   
    14   11   12 1   
    15   11   17 1   
    16   11   18 1   
    17   12   13 1   
    18   12   14 1   
    19   19   20 1   
    20   19   27 1   
    21   20   21 1   
    22   20   23 1   
    23   20   28 1   
    24   21   22 2   
    25   21   38 1   
    26   23   24 1   
    27   23   25 1   
    28   23   29 1   
    29   24   26 1   
    30   24   30 1   
    31   24   31 1   
    32   25   32 1   
    33   25   33 1   
    34   25   34 1   
    35   26   35 1   
    36   26   36 1   
    37   26   37 1   
    38   38   39 1   
    39   38   46 1   
    40   39   40 1   
    41   39   42 1   
    42   39   47 1   
    43   40   41 2   
    44   40   50 1   
    45   42   43 1   
    46   42   48 1   
    47   42   49 1   
    48   43   44 1   
    49   43   45 1   
    50   50   51 1   
    51   50   54 1   
    52   51   52 1   
    53   51   55 1   
    54   51   56 1   
    55   52   53 2   
    56   52   57 1   
    57   57   58 1   
    58   57   65 1   
    59   58   59 1   
    60   58   61 1   
    61   58   66 1   
    62   59   60 2   
    63   59   69 1   
    64   61   62 1   
    65   61   67 1   
    66   61   68 1   
    67   62   63 1   
    68   62   64 1   
    69   69   70 1   
    70   69   73 1   
    71   70   71 1   
    72   70   74 1   
    73   70   75 1   
    74   71   72 2   
    75   71   76 1   
    76   76   77 1   
    77   76   85 1   
    78   77   78 1   
    79   77   80 1   
    80   77   86 1   
    81   78   79 2   
    82   78   93 1   
    83   80   81 1   
    84   80   87 1   
    85   80   88 1   
    86   81   82 1   
    87   81   89 1   
    88   81   90 1   
    89   82   83 1   
    90   82   84 2   
    91   83   91 1   
    92   83   92 1   
    93   93   94 1   
    94   93  100 1   
    95   94   95 1   
    96   94   97 1   
    97   94  101 1   
    98   95   96 2   
    99   95  109 1   
   100   97   98 1   
   101   97   99 1   
   102   97  102 1   
   103   98  103 1   
   104   98  104 1   
   105   98  105 1   
   106   99  106 1   
   107   99  107 1   
   108   99  108 1   
   109  109  110 1   
   110  109  117 1   
   111  110  111 1   
   112  110  113 1   
   113  110  118 1   
   114  111  112 2   
   115  111  123 1   
   116  113  114 1   
   117  113  119 1   
   118  113  120 1   
   119  114  115 1   
   120  114  116 2   
   121  115  121 1   
   122  115  122 1   
   123  123  124 1   
   124  123  135 1   
   125  124  125 1   
   126  124  127 1   
   127  124  136 1   
   128  125  126 2   
   129  125  144 1   
   130  127  128 1   
   131  127  137 1   
   132  127  138 1   
   133  128  129 ar  
   134  128  130 ar  
   135  129  131 ar  
   136  129  139 1   
   137  130  132 ar  
   138  130  140 1   
   139  131  133 ar  
   140  131  141 1   
   141  132  133 ar  
   142  132  142 1   
   143  133  134 1   
   144  134  143 1   
   145  144  145 1   
   146  144  153 1   
   147  145  146 1   
   148  145  148 1   
   149  145  154 1   
   150  146  147 2   
   151  146  159 1   
   152  148  149 1   
   153  148  155 1   
   154  148  156 1   
   155  149  150 1   
   156  149  157 1   
   157  149  158 1   
   158  150  151 1   
   159  150  152 1   
   160  159  160 1   
   161  159  168 1   
   162  160  161 1   
   163  160  163 1   
   164  160  169 1   
   165  161  162 2   
   166  161  174 1   
   167  163  164 1   
   168  163  170 1   
   169  163  171 1   
   170  164  165 1   
   171  164  172 1   
   172  164  173 1   
   173  165  166 1   
   174  165  167 1   
   175  174  175 1   
   176  174  179 1   
   177  175  176 1   
   178  175  177 1   
   179  175  178 1   
   180  181  182 1   
   181  181  183 1   
   182  184  185 1   
   183  184  186 1   
@<TRIPOS>SUBSTRUCTURE
     1 MOL         1 TEMP              0 ****  ****    0 ROOT
