@<TRIPOS>MOLECULE
MOL
  175   173     1     0     0
SMALL
resp


@<TRIPOS>ATOM
      1 C1          0.3900    4.2250    5.5570 c3        1 MOL     -0.364184
      2 C2         -0.0910    4.1140    4.1270 c         1 MOL      0.760081
      3 O1          0.5920    4.4170    3.1660 o         1 MOL     -0.574227
      4 H1          1.0080    5.1160    5.6640 hc        1 MOL      0.083312
      5 H2         -0.4680    4.2970    6.2250 hc        1 MOL      0.083312
      6 H3          0.9780    3.3440    5.8120 hc        1 MOL      0.083312
      7 N1         -1.3370    3.6630    4.0130 n         1 MOL     -0.664481
      8 C3         -1.9930    3.4120    2.6770 c3        1 MOL      0.039676
      9 C4         -2.0560    4.6690    1.7850 c         1 MOL      0.607396
     10 O2         -2.5830    5.7420    2.1590 o         1 MOL     -0.585816
     11 C5         -3.4170    2.9060    2.8680 c3        1 MOL     -0.087150
     12 C6         -4.0920    2.6430    1.5520 c         1 MOL      0.542434
     13 O3         -3.5820    2.0250    0.6160 o         1 MOL     -0.599944
     14 O4         -5.2210    3.1540    1.4190 o         1 MOL     -0.599944
     15 H4         -1.8710    3.5480    4.8630 hn        1 MOL      0.342567
     16 H5         -1.4110    2.6380    2.1710 h1        1 MOL      0.113205
     17 H6         -4.0050    3.5890    3.4770 hc        1 MOL      0.016810
     18 H7         -3.3880    1.9950    3.4740 hc        1 MOL      0.016810
     19 N2         -1.7910    4.4780    0.4910 n         1 MOL     -0.447574
     20 C7         -2.1190    5.4260   -0.5900 c3        1 MOL      0.261934
     21 C8         -3.1050    4.9910   -1.7720 c         1 MOL      0.520104
     22 O5         -3.1920    5.5920   -2.8360 o         1 MOL     -0.559903
     23 C9         -0.7630    5.7650   -1.0660 c3        1 MOL     -0.119609
     24 H8         -1.5380    3.5470    0.1850 hn        1 MOL      0.250398
     25 H9         -2.5520    6.3510   -0.2020 h1        1 MOL      0.016765
     26 H10        -0.2350    4.8730   -1.4300 hc        1 MOL      0.016708
     27 H11        -0.8300    6.5010   -1.8640 hc        1 MOL      0.016708
     28 H12        -0.2260    6.1870   -0.2120 hc        1 MOL      0.016708
     29 N3         -3.9570    3.9510   -1.6080 n         1 MOL     -0.603493
     30 C10        -4.7980    3.3320   -2.7460 c3        1 MOL      0.254602
     31 C11        -6.0190    2.4770   -2.3990 c         1 MOL      0.295310
     32 O6         -6.8750    2.3840   -3.2990 o         1 MOL     -0.560529
     33 C12        -3.8710    2.4100   -3.5940 c3        1 MOL     -0.474387
     34 C13        -3.3020    1.3890   -2.6430 c         1 MOL      0.822063
     35 O7         -3.9060    0.5810   -1.9770 o         1 MOL     -0.701861
     36 O8         -2.0710    1.3680   -2.4890 o         1 MOL     -0.701861
     37 H13        -3.7600    3.3720   -0.7980 hn        1 MOL      0.377024
     38 H14        -5.2430    4.1040   -3.3660 h1        1 MOL      0.089613
     39 H15        -3.0670    3.0780   -3.9210 hc        1 MOL      0.123832
     40 H16        -4.3490    1.8570   -4.4080 hc        1 MOL      0.123832
     41 N4         -6.2980    2.2340   -1.1460 n         1 MOL     -0.071359
     42 C14        -7.3990    1.3550   -0.6270 c3        1 MOL     -0.271942
     43 C15        -7.5160   -0.1150   -0.9810 c         1 MOL      0.502974
     44 O9         -8.6090   -0.6700   -0.7090 o         1 MOL     -0.596986
     45 H17        -5.5810    2.5010   -0.4870 hn        1 MOL      0.063700
     46 H18        -8.3580    1.7670   -0.9470 h1        1 MOL      0.129337
     47 H19        -7.4120    1.4320    0.4600 h1        1 MOL      0.129337
     48 N5         -6.4550   -0.7300   -1.5070 n         1 MOL     -0.237974
     49 C16        -6.3600   -2.1470   -1.8580 c3        1 MOL     -0.081086
     50 C17        -6.2940   -3.0740   -0.6240 c         1 MOL      0.468649
     51 O10        -6.4520   -4.2530   -0.9530 o         1 MOL     -0.565914
     52 C18        -5.2380   -2.4690   -2.8350 c3        1 MOL      0.049735
     53 C19        -3.8280   -2.3630   -2.2750 c         1 MOL      0.325927
     54 N6         -2.8820   -2.5490   -3.1130 n         1 MOL     -0.562240
     55 O11        -3.6210   -2.2320   -1.0630 o         1 MOL     -0.100142
     56 H20        -5.6690   -0.1750   -1.8210 hn        1 MOL      0.245097
     57 H21        -7.2660   -2.3670   -2.4190 h1        1 MOL      0.096864
     58 H22        -5.3990   -1.7870   -3.6680 hc        1 MOL      0.014827
     59 H23        -5.4250   -3.4490   -3.2870 hc        1 MOL      0.014827
     60 H24        -3.2350   -2.6440   -4.0490 hn        1 MOL      0.308421
     61 H25        -1.9300   -2.2710   -2.9130 hn        1 MOL      0.308421
     62 N7         -6.1450   -2.6370    0.5900 n         1 MOL     -0.269491
     63 C20        -6.1690   -3.4870    1.8200 c3        1 MOL     -0.164401
     64 C21        -4.8110   -4.2330    2.1270 c         1 MOL      0.437828
     65 O12        -4.6540   -4.9430    3.1150 o         1 MOL     -0.603670
     66 H26        -5.9390   -1.6560    0.6790 hn        1 MOL      0.215544
     67 H27        -6.9160   -4.2810    1.6830 h1        1 MOL      0.117074
     68 H28        -6.5670   -2.9950    2.7100 h1        1 MOL      0.117074
     69 N8         -3.7910   -4.0370    1.3750 n         1 MOL      0.031402
     70 C22        -2.4390   -4.6530    1.5000 c3        1 MOL     -0.324611
     71 C23        -1.4090   -3.5380    1.4230 c         1 MOL      0.736766
     72 O13        -1.6660   -2.3910    0.9350 o         1 MOL     -0.795264
     73 C24        -2.3000   -5.6050    0.2340 c3        1 MOL      0.533044
     74 C25        -3.0420   -6.9330    0.4650 c3        1 MOL     -0.396060
     75 O14        -2.8010   -5.0950   -0.9890 oh        1 MOL     -0.590874
     76 H29        -3.9380   -3.4300    0.5940 hn        1 MOL      0.005754
     77 H30        -2.2570   -5.2620    2.3880 h1        1 MOL      0.128338
     78 H31        -1.2790   -5.9350    0.0340 h1        1 MOL     -0.039943
     79 H32        -2.6520   -4.1510   -1.0100 ho        1 MOL      0.291864
     80 H33        -2.4540   -7.6440    1.0470 hc        1 MOL      0.097518
     81 H34        -4.0140   -6.6990    0.9030 hc        1 MOL      0.097518
     82 H35        -3.2550   -7.4120   -0.5010 hc        1 MOL      0.097518
     83 N9         -0.1720   -3.8800    1.7910 n         1 MOL     -0.507832
     84 C26         0.9990   -3.0750    1.8090 c3        1 MOL      0.177980
     85 C27         1.7160   -3.2870    0.4100 c         1 MOL      0.421809
     86 O15         2.0660   -4.3780   -0.0350 o         1 MOL     -0.562604
     87 C28         2.0280   -3.3160    2.9450 c3        1 MOL     -0.118467
     88 C29         1.5100   -2.9910    4.3680 c3        1 MOL     -0.083754
     89 C30         3.3700   -2.5420    2.7520 c3        1 MOL     -0.007771
     90 C31         1.4640   -1.4850    4.7550 c3        1 MOL     -0.032353
     91 H36        -0.0880   -4.8200    2.1710 hn        1 MOL      0.260032
     92 H37         0.7150   -2.0170    1.8670 h1        1 MOL      0.174367
     93 H38         2.2280   -4.3850    2.9740 hc        1 MOL      0.021731
     94 H39         2.1040   -3.4320    5.1720 hc        1 MOL      0.029768
     95 H40         0.4680   -3.2900    4.4430 hc        1 MOL      0.029768
     96 H41         3.9350   -2.7320    3.6610 hc        1 MOL      0.019746
     97 H42         4.0210   -2.9780    1.9960 hc        1 MOL      0.019746
     98 H43         3.1110   -1.4900    2.6230 hc        1 MOL      0.019746
     99 H44         0.7620   -1.3610    5.5800 hc        1 MOL     -0.000366
    100 H45         2.4940   -1.1830    4.9540 hc        1 MOL     -0.000366
    101 H46         1.1330   -0.8480    3.9270 hc        1 MOL     -0.000366
    102 N10         1.7690   -2.1650   -0.3310 n         1 MOL     -0.205907
    103 C32         2.5880   -1.9430   -1.4540 c3        1 MOL      0.073155
    104 C33         3.9910   -1.4610   -0.9790 c         1 MOL      0.353707
    105 O16         4.1500   -0.9510    0.1020 o         1 MOL     -0.206248
    106 C34         1.8870   -0.8990   -2.3840 c3        1 MOL     -0.350744
    107 C35         0.4470   -1.1870   -2.8030 c         1 MOL      0.777892
    108 O17        -0.5060   -0.9540   -2.0310 o         1 MOL     -0.690919
    109 O18         0.2670   -1.6620   -3.9640 o         1 MOL     -0.690919
    110 H47         1.3880   -1.3430    0.1110 hn        1 MOL      0.166181
    111 H48         2.6510   -2.9040   -1.9590 h1        1 MOL      0.069983
    112 H49         2.4730   -0.7810   -3.2960 hc        1 MOL      0.096850
    113 H50         1.9390    0.0290   -1.8120 hc        1 MOL      0.096850
    114 N11         5.0420   -1.6390   -1.7610 n         1 MOL     -0.684419
    115 C36         6.4510   -1.4300   -1.2860 c3        1 MOL      0.471733
    116 C37         6.6940    0.0450   -1.0500 c         1 MOL      0.235574
    117 O19         7.5020    0.2550   -0.1070 o         1 MOL     -0.488972
    118 C38         7.3520   -2.0020   -2.3280 c3        1 MOL     -0.115523
    119 C39         8.8510   -1.8440   -1.9820 ca        1 MOL      0.032154
    120 C40         9.4810   -2.6310   -1.0050 ca        1 MOL     -0.180639
    121 C41         9.5420   -0.7260   -2.4310 ca        1 MOL     -0.180639
    122 C42        10.8100   -2.3550   -0.6640 ca        1 MOL     -0.083795
    123 C43        10.8380   -0.3250   -2.0230 ca        1 MOL     -0.083795
    124 C44        11.4590   -1.1770   -1.1450 ca        1 MOL     -0.114112
    125 H51         4.8040   -2.1630   -2.5890 hn        1 MOL      0.330301
    126 H52         6.7430   -2.0640   -0.4390 h1        1 MOL      0.039637
    127 H53         7.3150   -1.6190   -3.3490 hc        1 MOL      0.041775
    128 H54         7.0420   -3.0360   -2.4610 hc        1 MOL      0.041775
    129 H55         8.8360   -3.3020   -0.4560 ha        1 MOL      0.117316
    130 H56         9.0920   -0.0480   -3.1410 ha        1 MOL      0.117316
    131 H57        11.4090   -2.9420    0.0110 ha        1 MOL      0.105765
    132 H58        11.2740    0.6340   -2.2970 ha        1 MOL      0.105765
    133 H59        12.4230   -0.9030   -0.7470 ha        1 MOL      0.096042
    134 N12         6.1350    1.0040   -1.7960 n         1 MOL      0.042966
    135 C45         6.2380    2.4040   -1.4730 c3        1 MOL     -0.018621
    136 C46         5.4960    2.8190   -0.1510 c         1 MOL      0.291555
    137 O20         5.5160    3.9450    0.2300 o         1 MOL     -0.509992
    138 C47         5.7360    3.1870   -2.7310 c3        1 MOL     -0.042876
    139 C48         6.1160    2.1870   -3.8570 c3        1 MOL     -0.079813
    140 C49         5.7510    0.8510   -3.1610 c3        1 MOL     -0.003476
    141 H60         7.2750    2.6750   -1.2800 h1        1 MOL      0.076432
    142 H61         4.6690    3.3930   -2.6190 hc        1 MOL      0.051404
    143 H62         6.3050    4.1170   -2.8150 hc        1 MOL      0.051404
    144 H63         5.5550    2.3730   -4.7790 hc        1 MOL      0.037830
    145 H64         7.1920    2.2010   -4.0200 hc        1 MOL      0.037830
    146 H65         4.6800    0.6280   -3.2020 h1        1 MOL      0.024057
    147 H66         6.2400   -0.0170   -3.6080 h1        1 MOL      0.024057
    148 N13         4.7180    1.9480    0.4340 n         1 MOL      0.057644
    149 C50         4.1160    2.1540    1.7660 c3        1 MOL     -0.133745
    150 C51         4.7630    1.3310    2.8690 c         1 MOL      0.471720
    151 O21         4.6880    1.6450    4.0260 o         1 MOL     -0.547898
    152 C52         2.6130    1.7460    1.7710 c3        1 MOL      0.179705
    153 C53         1.7910    2.0950    0.5200 c3        1 MOL     -0.044917
    154 C54         0.4750    1.3880    0.4710 c         1 MOL      0.427945
    155 O22        -0.5180    1.9050   -0.1530 o         1 MOL     -0.580204
    156 O23         0.2960    0.2720    0.9760 o         1 MOL     -0.580204
    157 H67         4.6880    0.9800    0.1540 hn        1 MOL     -0.070594
    158 H68         4.1070    3.2380    1.9180 h1        1 MOL      0.110846
    159 H69         2.0780    2.2740    2.5650 hc        1 MOL     -0.042227
    160 H70         2.5610    0.6580    1.7620 hc        1 MOL     -0.042227
    161 H71         2.4050    1.8490   -0.3510 hc        1 MOL      0.044804
    162 H72         1.5590    3.1620    0.4840 hc        1 MOL      0.044804
    163 N14         5.4210    0.1920    2.5890 n         1 MOL     -0.084729
    164 C55         6.3770   -0.4800    3.4800 c3        1 MOL     -0.224103
    165 H73         6.9650    0.2680    4.0120 h1        1 MOL      0.090171
    166 H74         5.8360   -1.0930    4.1990 h1        1 MOL      0.090171
    167 H75         7.0420   -1.1110    2.8900 h1        1 MOL      0.090171
    168 H76         5.1850   -0.2690    1.7240 hn        1 MOL      0.011590
    169 Ca1        -2.1490   -0.0550   -0.2160 Ca        1 MOL      1.462518
    170 O24        -4.6020   -0.3610    0.8560 oh        1 MOL     -0.773792
    171 H77        -4.8900   -0.4340    1.7660 ho        1 MOL      0.389168
    172 H78        -4.5880    0.5880    0.6780 ho        1 MOL      0.389168
    173 O25        -1.9390    0.1410    2.3000 oh        1 MOL     -0.773792
    174 H79        -0.9890    0.0020    2.2620 ho        1 MOL      0.389168
    175 H80        -2.1230    0.2660    3.2350 ho        1 MOL      0.389168
@<TRIPOS>BOND
     1    1    2 1   
     2    1    4 1   
     3    1    5 1   
     4    1    6 1   
     5    2    3 2   
     6    2    7 1   
     7    7    8 1   
     8    7   15 1   
     9    8    9 1   
    10    8   11 1   
    11    8   16 1   
    12    9   10 2   
    13    9   19 1   
    14   11   12 1   
    15   11   17 1   
    16   11   18 1   
    17   12   13 1   
    18   12   14 1   
    19   19   20 1   
    20   19   24 1   
    21   20   21 1   
    22   20   23 1   
    23   20   25 1   
    24   21   22 2   
    25   21   29 1   
    26   23   26 1   
    27   23   27 1   
    28   23   28 1   
    29   29   30 1   
    30   29   37 1   
    31   30   31 1   
    32   30   33 1   
    33   30   38 1   
    34   31   32 2   
    35   31   41 1   
    36   33   34 1   
    37   33   39 1   
    38   33   40 1   
    39   34   35 1   
    40   34   36 1   
    41   41   42 1   
    42   41   45 1   
    43   42   43 1   
    44   42   46 1   
    45   42   47 1   
    46   43   44 2   
    47   43   48 1   
    48   48   49 1   
    49   48   56 1   
    50   49   50 1   
    51   49   52 1   
    52   49   57 1   
    53   50   51 2   
    54   50   62 1   
    55   52   53 1   
    56   52   58 1   
    57   52   59 1   
    58   53   54 1   
    59   53   55 2   
    60   54   60 1   
    61   54   61 1   
    62   62   63 1   
    63   62   66 1   
    64   63   64 1   
    65   63   67 1   
    66   63   68 1   
    67   64   65 2   
    68   64   69 1   
    69   69   70 1   
    70   69   76 1   
    71   70   71 1   
    72   70   73 1   
    73   70   77 1   
    74   71   72 2   
    75   71   83 1   
    76   73   74 1   
    77   73   75 1   
    78   73   78 1   
    79   74   80 1   
    80   74   81 1   
    81   74   82 1   
    82   75   79 1   
    83   83   84 1   
    84   83   91 1   
    85   84   85 1   
    86   84   87 1   
    87   84   92 1   
    88   85   86 2   
    89   85  102 1   
    90   87   88 1   
    91   87   89 1   
    92   87   93 1   
    93   88   90 1   
    94   88   94 1   
    95   88   95 1   
    96   89   96 1   
    97   89   97 1   
    98   89   98 1   
    99   90   99 1   
   100   90  100 1   
   101   90  101 1   
   102  102  103 1   
   103  102  110 1   
   104  103  104 1   
   105  103  106 1   
   106  103  111 1   
   107  104  105 2   
   108  104  114 1   
   109  106  107 1   
   110  106  112 1   
   111  106  113 1   
   112  107  108 1   
   113  107  109 1   
   114  114  115 1   
   115  114  125 1   
   116  115  116 1   
   117  115  118 1   
   118  115  126 1   
   119  116  117 2   
   120  116  134 1   
   121  118  119 1   
   122  118  127 1   
   123  118  128 1   
   124  119  120 ar  
   125  119  121 ar  
   126  120  122 ar  
   127  120  129 1   
   128  121  123 ar  
   129  121  130 1   
   130  122  124 ar  
   131  122  131 1   
   132  123  124 ar  
   133  123  132 1   
   134  124  133 1   
   135  134  135 1   
   136  134  140 1   
   137  135  136 1   
   138  135  138 1   
   139  135  141 1   
   140  136  137 2   
   141  136  148 1   
   142  138  139 1   
   143  138  142 1   
   144  138  143 1   
   145  139  140 1   
   146  139  144 1   
   147  139  145 1   
   148  140  146 1   
   149  140  147 1   
   150  148  149 1   
   151  148  157 1   
   152  149  150 1   
   153  149  152 1   
   154  149  158 1   
   155  150  151 2   
   156  150  163 1   
   157  152  153 1   
   158  152  159 1   
   159  152  160 1   
   160  153  154 1   
   161  153  161 1   
   162  153  162 1   
   163  154  155 1   
   164  154  156 1   
   165  163  164 1   
   166  163  168 1   
   167  164  165 1   
   168  164  166 1   
   169  164  167 1   
   170  170  171 1   
   171  170  172 1   
   172  173  174 1   
   173  173  175 1   
@<TRIPOS>SUBSTRUCTURE
     1 MOL         1 TEMP              0 ****  ****    0 ROOT
