@<TRIPOS>MOLECULE
MOL
  169   169     1     0     0
SMALL
resp


@<TRIPOS>ATOM
      1 C1          0.1350   -2.5450    6.0400 c3        1 MOL     -0.423292
      2 C2          0.5780   -2.6500    4.6210 c         1 MOL      0.784280
      3 O1         -0.1770   -3.1380    3.7860 o         1 MOL     -0.583010
      4 H1          0.9130   -2.9410    6.6930 hc        1 MOL      0.101934
      5 H2         -0.0490   -1.5000    6.2870 hc        1 MOL      0.101934
      6 H3         -0.7810   -3.1190    6.1780 hc        1 MOL      0.101934
      7 N1          1.7900   -2.0670    4.3210 n         1 MOL     -0.741167
      8 C3          2.4350   -2.1770    2.9670 c3        1 MOL      0.385092
      9 C4          2.5130   -3.6820    2.3300 c         1 MOL      0.456805
     10 O2          3.2130   -4.5420    2.8800 o         1 MOL     -0.598937
     11 C5          3.7860   -1.4880    3.0860 c3        1 MOL     -0.288973
     12 C6          4.1360   -0.8220    1.7760 c         1 MOL      0.711909
     13 O3          5.1080   -0.0190    1.8750 o         1 MOL     -0.663585
     14 O4          3.6260   -1.3210    0.7460 o         1 MOL     -0.663585
     15 H4          2.2730   -1.5710    5.0600 hn        1 MOL      0.338003
     16 H5          1.8660   -1.5980    2.2310 h1        1 MOL     -0.045781
     17 H6          4.5650   -2.1620    3.4380 hc        1 MOL      0.066266
     18 H7          3.6140   -0.6800    3.7940 hc        1 MOL      0.066266
     19 N2          1.8880   -3.8580    1.1910 n         1 MOL     -0.257090
     20 C7          1.8770   -5.1060    0.3800 c3        1 MOL      0.091066
     21 C8          2.7400   -5.0850   -0.8850 c         1 MOL      0.376073
     22 O5          2.6940   -6.0750   -1.5650 o         1 MOL     -0.512886
     23 C9          0.4420   -5.6730    0.0570 c3        1 MOL     -0.053321
     24 H8          1.4900   -3.0060    0.8350 hn        1 MOL      0.192486
     25 H9          2.2010   -5.9570    0.9830 h1        1 MOL      0.062757
     26 H10         0.5340   -6.6570   -0.4080 hc        1 MOL      0.018520
     27 H11        -0.1990   -5.7380    0.9350 hc        1 MOL      0.018520
     28 H12        -0.1100   -5.1020   -0.6860 hc        1 MOL      0.018520
     29 N3          3.4130   -3.9500   -1.1560 n         1 MOL     -0.095244
     30 C10         4.5050   -3.9180   -2.1040 c3        1 MOL      0.002859
     31 C11         5.8170   -3.4030   -1.5620 c         1 MOL      0.410248
     32 O6          6.8700   -3.8030   -2.1010 o         1 MOL     -0.563408
     33 C12         3.9590   -3.1510   -3.3520 c3        1 MOL     -0.058548
     34 C13         3.2490   -1.9370   -2.9890 c         1 MOL      0.642868
     35 O7          2.0190   -1.7390   -3.0170 o         1 MOL     -0.686438
     36 O8          3.8980   -1.0360   -2.3520 o         1 MOL     -0.686438
     37 H13         3.2810   -3.1690   -0.5190 hn        1 MOL      0.031012
     38 H14         4.7270   -4.9030   -2.5130 h1        1 MOL      0.069245
     39 H15         3.2720   -3.8150   -3.8710 hc        1 MOL      0.017818
     40 H16         4.7470   -2.8240   -4.0360 hc        1 MOL      0.017818
     41 N4          5.7790   -2.5930   -0.5320 n         1 MOL     -0.231230
     42 C14         7.0180   -1.9990    0.0600 c3        1 MOL     -0.228390
     43 C15         7.2930   -0.6370   -0.4350 c         1 MOL      0.619920
     44 O9          8.2710   -0.0350   -0.0290 o         1 MOL     -0.621874
     45 H17         4.8410   -2.4190   -0.1950 hn        1 MOL      0.206662
     46 H18         7.8780   -2.6530   -0.0470 h1        1 MOL      0.136634
     47 H19         6.8380   -1.9170    1.1370 h1        1 MOL      0.136634
     48 N5          6.4060   -0.0380   -1.2510 n         1 MOL     -0.351327
     49 C16         6.6660    1.3340   -1.7930 c3        1 MOL     -0.047442
     50 C17         6.6420    2.4980   -0.7970 c         1 MOL      0.544158
     51 O10         6.9660    3.5890   -1.1420 o         1 MOL     -0.577156
     52 C18         5.7140    1.6260   -2.9230 c3        1 MOL     -0.108707
     53 C19         4.2710    1.9230   -2.6070 c         1 MOL      0.674048
     54 N6          3.4670    2.3000   -3.5930 n         1 MOL     -0.737381
     55 O11         3.7450    1.7780   -1.5580 o         1 MOL     -0.821662
     56 H20         5.5570   -0.5100   -1.5520 hn        1 MOL      0.236115
     57 H21         7.6430    1.4730   -2.2560 h1        1 MOL      0.091273
     58 H22         5.6660    0.8190   -3.6480 hc        1 MOL      0.053569
     59 H23         6.0610    2.5140   -3.4350 hc        1 MOL      0.053569
     60 H24         3.7620    2.3320   -4.5530 hn        1 MOL      0.355774
     61 H25         2.5080    2.4180   -3.2730 hn        1 MOL      0.355774
     62 N7          6.2880    2.3200    0.4800 n         1 MOL     -0.153989
     63 C20         6.2660    3.4030    1.4900 c3        1 MOL     -0.249461
     64 C21         5.0250    4.3370    1.4640 c         1 MOL      0.525324
     65 O12         5.0560    5.4590    1.9530 o         1 MOL     -0.549577
     66 H26         5.9650    1.3810    0.7080 hn        1 MOL      0.226329
     67 H27         7.1680    4.0180    1.4100 h1        1 MOL      0.109298
     68 H28         6.2880    3.0600    2.5200 h1        1 MOL      0.109298
     69 N8          3.9600    3.7670    0.8670 n         1 MOL     -0.089188
     70 C22         2.6310    4.3800    0.7450 c3        1 MOL     -0.558364
     71 C23         1.6080    3.3450    0.9960 c         1 MOL      0.859175
     72 O13         1.8720    2.2000    0.6460 o         1 MOL     -0.662240
     73 C24         2.2150    5.2180   -0.5270 c3        1 MOL      0.643699
     74 C25         3.0570    6.4570   -0.5920 c3        1 MOL     -0.542820
     75 O14         2.2200    4.4190   -1.6520 oh        1 MOL     -0.658384
     76 H29         4.0610    2.8280    0.5150 hn        1 MOL      0.186395
     77 H30         2.5520    5.0890    1.5640 h1        1 MOL      0.132588
     78 H31         1.1780    5.5570   -0.4230 h1        1 MOL      0.004979
     79 H32         3.0350    3.9060   -1.6600 ho        1 MOL      0.418247
     80 H33         4.0930    6.2410   -0.8720 hc        1 MOL      0.125413
     81 H34         2.6260    7.1460   -1.3260 hc        1 MOL      0.125413
     82 H35         3.1530    6.9680    0.3650 hc        1 MOL      0.125413
     83 N9          0.4240    3.7320    1.5500 n         1 MOL     -0.688080
     84 C26        -0.7760    2.8420    1.6310 c3        1 MOL     -0.010530
     85 C27        -1.5060    2.9570    0.2670 c         1 MOL      0.692508
     86 O15        -2.1410    3.9510   -0.0820 o         1 MOL     -0.604190
     87 C28        -1.7020    3.1960    2.7930 c3        1 MOL      0.365724
     88 C29        -1.1110    3.7120    4.1430 c3        1 MOL      0.118732
     89 C30        -2.6590    2.0360    3.0600 c3        1 MOL     -0.600244
     90 C31        -1.9640    4.0910    5.3950 c3        1 MOL     -0.096787
     91 H36         0.2540    4.7180    1.7090 hn        1 MOL      0.302524
     92 H37        -0.3300    1.8640    1.8160 h1        1 MOL      0.155495
     93 H38        -2.2340    4.0600    2.4160 hc        1 MOL     -0.082012
     94 H39        -0.5290    4.6180    3.9790 hc        1 MOL     -0.039031
     95 H40        -0.3590    2.9580    4.3800 hc        1 MOL     -0.039031
     96 H41        -3.1070    1.6210    2.1680 hc        1 MOL      0.117860
     97 H42        -2.2570    1.2340    3.6820 hc        1 MOL      0.117860
     98 H43        -3.4320    2.5260    3.6600 hc        1 MOL      0.117860
     99 H44        -2.7620    3.4010    5.6730 hc        1 MOL      0.014297
    100 H45        -1.3590    4.2480    6.2790 hc        1 MOL      0.014297
    101 H46        -2.4990    4.9980    5.1040 hc        1 MOL      0.014297
    102 N10        -1.4990    1.8550   -0.4970 n         1 MOL     -0.333158
    103 C32        -2.4570    1.6290   -1.5550 c3        1 MOL     -0.037378
    104 C33        -3.8080    1.3000   -0.9440 c         1 MOL      0.412744
    105 O16        -3.9250    0.7250    0.0790 o         1 MOL     -0.271272
    106 C34        -1.9140    0.6550   -2.6050 c3        1 MOL     -0.086274
    107 C35        -0.5670    1.0580   -3.2840 c         1 MOL      0.618503
    108 O17         0.5670    0.9640   -2.6910 o         1 MOL     -0.634748
    109 O18        -0.5430    1.1980   -4.5110 o         1 MOL     -0.634748
    110 H47        -0.9330    1.0790   -0.1980 hn        1 MOL     -0.066715
    111 H48        -2.6510    2.5580   -2.1060 h1        1 MOL      0.077701
    112 H49        -2.5850    0.5420   -3.4700 hc        1 MOL      0.044632
    113 H50        -1.8540   -0.3050   -2.0830 hc        1 MOL      0.044632
    114 N11        -4.8290    1.5850   -1.7440 n         1 MOL     -0.511245
    115 C36        -6.2090    1.4130   -1.2720 c3        1 MOL      0.359256
    116 C37        -6.5300   -0.0160   -0.9260 c         1 MOL      0.254193
    117 O19        -7.2020   -0.1870    0.0870 o         1 MOL     -0.477534
    118 C38        -7.2350    2.0680   -2.2030 c3        1 MOL     -0.346910
    119 C39        -8.6920    1.7750   -1.8620 ca        1 MOL      0.117847
    120 C40        -9.2300    0.6490   -2.4850 ca        1 MOL     -0.171110
    121 C41        -9.4540    2.5220   -0.9640 ca        1 MOL     -0.171110
    122 C42       -10.4330    0.1450   -2.0850 ca        1 MOL     -0.124673
    123 C43       -10.7290    2.0660   -0.5650 ca        1 MOL     -0.124673
    124 C44       -11.1670    0.7670   -1.0310 ca        1 MOL     -0.097050
    125 H51        -4.5540    2.1130   -2.5580 hn        1 MOL      0.286024
    126 H52        -6.2690    2.0650   -0.3970 h1        1 MOL      0.050148
    127 H53        -6.9940    1.7720   -3.2280 hc        1 MOL      0.100121
    128 H54        -7.1530    3.1400   -2.0500 hc        1 MOL      0.100121
    129 H55        -8.6030    0.1030   -3.1690 ha        1 MOL      0.130556
    130 H56        -9.0300    3.3880   -0.4590 ha        1 MOL      0.130556
    131 H57       -10.7790   -0.7250   -2.6260 ha        1 MOL      0.113819
    132 H58       -11.1900    2.6690    0.1990 ha        1 MOL      0.113819
    133 H59       -12.0330    0.2700   -0.5950 ha        1 MOL      0.104719
    134 N12        -6.1080   -1.0740   -1.6260 n         1 MOL      0.040812
    135 C45        -6.3190   -2.4840   -1.2360 c3        1 MOL     -0.036601
    136 C46        -5.5560   -2.7510    0.1280 c         1 MOL      0.252961
    137 O20        -5.8610   -3.7140    0.7720 o         1 MOL     -0.501855
    138 C47        -5.6960   -3.4050   -2.1820 c3        1 MOL      0.002290
    139 C48        -5.8760   -2.5650   -3.4300 c3        1 MOL      0.007778
    140 C49        -5.5860   -1.1100   -2.9910 c3        1 MOL     -0.063437
    141 H60        -7.3840   -2.7230   -1.1850 h1        1 MOL      0.083372
    142 H61        -4.6270   -3.5520   -2.0290 hc        1 MOL      0.044964
    143 H62        -6.1710   -4.3820   -2.2790 hc        1 MOL      0.044964
    144 H63        -5.2320   -2.8860   -4.2520 hc        1 MOL      0.001591
    145 H64        -6.9040   -2.5950   -3.7940 hc        1 MOL      0.001591
    146 H65        -4.5080   -0.9610   -2.9910 h1        1 MOL      0.034475
    147 H66        -6.0320   -0.3510   -3.6400 h1        1 MOL      0.034475
    148 N13        -4.6210   -1.8930    0.5600 n         1 MOL     -0.103166
    149 C50        -3.8510   -2.0900    1.8300 c3        1 MOL     -0.025960
    150 C51        -4.6510   -1.4500    2.9620 c         1 MOL      0.488596
    151 O21        -4.5410   -1.9000    4.1020 o         1 MOL     -0.567834
    152 C52        -2.4280   -1.6410    1.5970 c3        1 MOL      0.088252
    153 C53        -1.7420   -2.0130    0.3330 c3        1 MOL      0.044717
    154 C54        -0.2860   -1.4650    0.2390 c         1 MOL      0.494225
    155 O22         0.5250   -2.1020   -0.4680 o         1 MOL     -0.620874
    156 O23         0.0260   -0.3000    0.6410 o         1 MOL     -0.620874
    157 H67        -4.4130   -1.0160    0.0980 hn        1 MOL      0.062245
    158 H68        -3.8860   -3.1160    2.1960 h1        1 MOL      0.085148
    159 H69        -1.8850   -2.1220    2.4150 hc        1 MOL      0.006623
    160 H70        -2.3370   -0.5540    1.6110 hc        1 MOL      0.006623
    161 H71        -2.2580   -1.5870   -0.5270 hc        1 MOL      0.007288
    162 H72        -1.7770   -3.1020    0.2580 hc        1 MOL      0.007288
    163 N14        -5.4150   -0.3530    2.7280 n         1 MOL     -0.128240
    164 C55        -6.4780    0.1730    3.6710 c3        1 MOL     -0.141544
    165 H73        -6.2560    1.2090    3.9260 h1        1 MOL      0.066293
    166 H74        -7.4530    0.1190    3.1860 h1        1 MOL      0.066293
    167 H75        -6.4890   -0.4300    4.5790 h1        1 MOL      0.066293
    168 H76        -5.3010    0.1680    1.8760 hn        1 MOL      0.118647
    169 Ca1         2.0120    0.0240   -0.9250 Ca        1 MOL      1.781198
@<TRIPOS>BOND
     1    1    2 1   
     2    1    4 1   
     3    1    5 1   
     4    1    6 1   
     5    2    3 2   
     6    2    7 1   
     7    7    8 1   
     8    7   15 1   
     9    8    9 1   
    10    8   11 1   
    11    8   16 1   
    12    9   10 2   
    13    9   19 1   
    14   11   12 1   
    15   11   17 1   
    16   11   18 1   
    17   12   13 1   
    18   12   14 1   
    19   19   20 1   
    20   19   24 1   
    21   20   21 1   
    22   20   23 1   
    23   20   25 1   
    24   21   22 2   
    25   21   29 1   
    26   23   26 1   
    27   23   27 1   
    28   23   28 1   
    29   29   30 1   
    30   29   37 1   
    31   30   31 1   
    32   30   33 1   
    33   30   38 1   
    34   31   32 2   
    35   31   41 1   
    36   33   34 1   
    37   33   39 1   
    38   33   40 1   
    39   34   35 1   
    40   34   36 1   
    41   41   42 1   
    42   41   45 1   
    43   42   43 1   
    44   42   46 1   
    45   42   47 1   
    46   43   44 2   
    47   43   48 1   
    48   48   49 1   
    49   48   56 1   
    50   49   50 1   
    51   49   52 1   
    52   49   57 1   
    53   50   51 2   
    54   50   62 1   
    55   52   53 1   
    56   52   58 1   
    57   52   59 1   
    58   53   54 1   
    59   53   55 2   
    60   54   60 1   
    61   54   61 1   
    62   62   63 1   
    63   62   66 1   
    64   63   64 1   
    65   63   67 1   
    66   63   68 1   
    67   64   65 2   
    68   64   69 1   
    69   69   70 1   
    70   69   76 1   
    71   70   71 1   
    72   70   73 1   
    73   70   77 1   
    74   71   72 2   
    75   71   83 1   
    76   73   74 1   
    77   73   75 1   
    78   73   78 1   
    79   74   80 1   
    80   74   81 1   
    81   74   82 1   
    82   75   79 1   
    83   83   84 1   
    84   83   91 1   
    85   84   85 1   
    86   84   87 1   
    87   84   92 1   
    88   85   86 2   
    89   85  102 1   
    90   87   88 1   
    91   87   89 1   
    92   87   93 1   
    93   88   90 1   
    94   88   94 1   
    95   88   95 1   
    96   89   96 1   
    97   89   97 1   
    98   89   98 1   
    99   90   99 1   
   100   90  100 1   
   101   90  101 1   
   102  102  103 1   
   103  102  110 1   
   104  103  104 1   
   105  103  106 1   
   106  103  111 1   
   107  104  105 2   
   108  104  114 1   
   109  106  107 1   
   110  106  112 1   
   111  106  113 1   
   112  107  108 1   
   113  107  109 1   
   114  114  115 1   
   115  114  125 1   
   116  115  116 1   
   117  115  118 1   
   118  115  126 1   
   119  116  117 2   
   120  116  134 1   
   121  118  119 1   
   122  118  127 1   
   123  118  128 1   
   124  119  120 ar  
   125  119  121 ar  
   126  120  122 ar  
   127  120  129 1   
   128  121  123 ar  
   129  121  130 1   
   130  122  124 ar  
   131  122  131 1   
   132  123  124 ar  
   133  123  132 1   
   134  124  133 1   
   135  134  135 1   
   136  134  140 1   
   137  135  136 1   
   138  135  138 1   
   139  135  141 1   
   140  136  137 2   
   141  136  148 1   
   142  138  139 1   
   143  138  142 1   
   144  138  143 1   
   145  139  140 1   
   146  139  144 1   
   147  139  145 1   
   148  140  146 1   
   149  140  147 1   
   150  148  149 1   
   151  148  157 1   
   152  149  150 1   
   153  149  152 1   
   154  149  158 1   
   155  150  151 2   
   156  150  163 1   
   157  152  153 1   
   158  152  159 1   
   159  152  160 1   
   160  153  154 1   
   161  153  161 1   
   162  153  162 1   
   163  154  155 1   
   164  154  156 1   
   165  163  164 1   
   166  163  168 1   
   167  164  165 1   
   168  164  166 1   
   169  164  167 1   
@<TRIPOS>SUBSTRUCTURE
     1 MOL         1 TEMP              0 ****  ****    0 ROOT
