@<TRIPOS>MOLECULE
MOL
  189   185     1     0     0
SMALL
resp


@<TRIPOS>ATOM
      1 C1          0.2950   -2.8650    6.2560 c3        1 MOL     -0.379077
      2 C2          0.7300   -2.6280    4.8110 c         1 MOL      0.819173
      3 O1          0.8170   -1.5270    4.3940 o         1 MOL     -0.631723
      4 H1         -0.7930   -2.8370    6.3170 hc        1 MOL      0.087888
      5 H2          0.6530   -3.8390    6.5900 hc        1 MOL      0.087888
      6 H3          0.7130   -2.0860    6.8940 hc        1 MOL      0.087888
      7 N1          1.0060   -3.7280    4.1590 n         1 MOL     -0.708318
      8 C3          1.7390   -3.7110    2.8770 c3        1 MOL      0.291579
      9 C4          1.3950   -4.9640    1.9630 c         1 MOL      0.424498
     10 O2          1.1950   -6.0570    2.4870 o         1 MOL     -0.586775
     11 C5          3.2510   -3.6220    3.1040 c3        1 MOL     -0.249380
     12 C6          4.0690   -2.8710    2.0350 c         1 MOL      0.756001
     13 O3          5.1720   -2.4530    2.3950 o         1 MOL     -0.675004
     14 O4          3.6430   -2.6450    0.8830 o         1 MOL     -0.675004
     15 H4          0.9720   -4.5510    4.7440 hn        1 MOL      0.333201
     16 H5          1.3170   -2.8800    2.3230 h1        1 MOL      0.134601
     17 H6          3.6880   -4.6160    3.2390 hc        1 MOL      0.045213
     18 H7          3.3420   -3.0540    4.0260 hc        1 MOL      0.045213
     19 N2          1.3980   -4.7680    0.6730 n         1 MOL      0.009227
     20 C7          1.5390   -5.7340   -0.4340 c3        1 MOL     -0.335776
     21 C8          2.7110   -5.5340   -1.3320 c         1 MOL      0.699041
     22 O5          3.1640   -6.5190   -1.8430 o         1 MOL     -0.607558
     23 C9          0.2260   -5.8460   -1.2770 c3        1 MOL      0.199057
     24 C10        -0.1570   -4.5320   -1.9830 c3        1 MOL      0.232248
     25 C11        -0.8990   -6.2770   -0.3050 c3        1 MOL     -0.287393
     26 C12        -0.9270   -4.7500   -3.2850 c3        1 MOL     -0.500624
     27 H8          1.3690   -3.8090    0.3520 hn        1 MOL     -0.038367
     28 H9          1.7990   -6.6530    0.0890 h1        1 MOL      0.133370
     29 H10         0.4110   -6.6250   -2.0140 hc        1 MOL     -0.026241
     30 H11         0.7970   -4.0540   -2.2080 hc        1 MOL      0.028121
     31 H12        -0.7550   -3.9120   -1.3130 hc        1 MOL      0.028121
     32 H13        -0.6170   -7.2430    0.1190 hc        1 MOL      0.062476
     33 H14        -0.9670   -5.5440    0.4940 hc        1 MOL      0.062476
     34 H15        -1.8390   -6.4120   -0.8530 hc        1 MOL      0.062476
     35 H16        -1.1780   -3.7130   -3.5350 hc        1 MOL      0.113522
     36 H17        -0.0560   -4.9980   -3.8980 hc        1 MOL      0.113522
     37 H18        -1.7110   -5.5020   -3.2010 hc        1 MOL      0.113522
     38 N3          3.4260   -4.3860   -1.4260 n         1 MOL     -0.496470
     39 C13         4.2890   -4.0200   -2.5710 c3        1 MOL      0.060812
     40 C14         5.5850   -3.2980   -2.1600 c         1 MOL      0.405694
     41 O6          6.4910   -3.2590   -2.9550 o         1 MOL     -0.567934
     42 C15         3.4800   -3.2540   -3.6180 c3        1 MOL      0.093590
     43 C16         2.9430   -1.9190   -3.2490 c         1 MOL      0.665680
     44 O7          3.1160   -1.4230   -2.1190 o         1 MOL     -0.700510
     45 O8          2.3020   -1.3210   -4.0750 o         1 MOL     -0.700510
     46 H19         3.2000   -3.6920   -0.7280 hn        1 MOL      0.217715
     47 H20         4.5310   -4.9130   -3.1460 h1        1 MOL      0.069565
     48 H21         2.6580   -3.8940   -3.9530 hc        1 MOL     -0.037902
     49 H22         4.1490   -3.1740   -4.4650 hc        1 MOL     -0.037902
     50 N4          5.7200   -2.7120   -0.9790 n         1 MOL     -0.007906
     51 C17         7.0200   -2.3220   -0.5570 c3        1 MOL     -0.388146
     52 C18         7.4550   -0.8850   -1.0100 c         1 MOL      0.569103
     53 O9          8.5850   -0.4480   -0.7290 o         1 MOL     -0.618949
     54 H23         4.9280   -2.6030   -0.3640 hn        1 MOL      0.079263
     55 H24         7.7510   -3.0720   -0.8550 h1        1 MOL      0.140455
     56 H25         7.0040   -2.2380    0.5230 h1        1 MOL      0.140455
     57 N5          6.5380   -0.1800   -1.6940 n         1 MOL     -0.229485
     58 C19         6.7850    1.0130   -2.5270 c3        1 MOL     -0.053327
     59 C20         7.2020    2.2410   -1.7310 c         1 MOL      0.456613
     60 O10         7.8430    3.1590   -2.2320 o         1 MOL     -0.573017
     61 C21         5.4650    1.3790   -3.3030 c3        1 MOL     -0.299709
     62 C22         4.1710    1.6730   -2.4670 c         1 MOL      0.772508
     63 O11         4.1570    1.2550   -1.3020 o         1 MOL     -0.677916
     64 O12         3.1730    2.1570   -3.0150 o         1 MOL     -0.677916
     65 H26         5.5980   -0.5490   -1.6940 hn        1 MOL      0.216703
     66 H27         7.6190    0.7530   -3.1730 h1        1 MOL      0.100825
     67 H28         5.2340    0.7690   -4.1760 hc        1 MOL      0.085313
     68 H29         5.7230    2.3510   -3.7220 hc        1 MOL      0.085313
     69 N6          7.0460    2.2280   -0.4100 n         1 MOL     -0.099879
     70 C23         7.4650    3.2470    0.4890 c3        1 MOL     -0.203950
     71 C24         6.2670    4.1100    0.9880 c         1 MOL      0.542705
     72 O13         6.4110    5.1330    1.5830 o         1 MOL     -0.599413
     73 H30         6.5580    1.4260   -0.0510 hn        1 MOL      0.217580
     74 H31         8.1370    3.9720    0.0260 h1        1 MOL      0.097190
     75 H32         7.9980    2.7490    1.2990 h1        1 MOL      0.097190
     76 N7          5.0450    3.7300    0.7400 n         1 MOL     -0.211828
     77 C25         3.7990    4.4200    1.1690 c3        1 MOL     -0.057792
     78 C26         2.6230    3.4020    1.4780 c         1 MOL      0.498794
     79 O14         2.8660    2.2090    1.3760 o         1 MOL     -0.394555
     80 C27         3.4400    5.3970   -0.0380 c3        1 MOL      0.062329
     81 C28         4.2730    6.6830   -0.1450 c3        1 MOL     -0.423330
     82 C29         3.6050    7.6860   -1.0960 c         1 MOL      0.729363
     83 N8          3.2860    7.3310   -2.3150 n         1 MOL     -0.827995
     84 O15         3.4510    8.8370   -0.7740 o         1 MOL     -0.603286
     85 H33         4.9430    2.7810    0.3970 hn        1 MOL      0.034977
     86 H34         4.0290    5.1020    1.9880 h1        1 MOL      0.079927
     87 H35         2.3760    5.5310    0.0970 hc        1 MOL      0.032966
     88 H36         3.5200    4.8670   -0.9910 hc        1 MOL      0.032966
     89 H37         5.3320    6.5260   -0.3520 hc        1 MOL      0.145205
     90 H38         4.3690    7.1920    0.8210 hc        1 MOL      0.145205
     91 H39         3.5620    6.4340   -2.6940 hn        1 MOL      0.370021
     92 H40         2.9490    8.0660   -2.9250 hn        1 MOL      0.370021
     93 N9          1.3930    3.8610    1.8220 n         1 MOL     -0.593234
     94 C30         0.2230    3.0700    1.9950 c3        1 MOL      0.194552
     95 C31        -0.7340    3.3510    0.7550 c         1 MOL      0.526035
     96 O16        -1.0750    4.5220    0.5780 o         1 MOL     -0.579106
     97 C32        -0.4390    3.3160    3.3760 c3        1 MOL      0.036275
     98 C33        -1.9220    3.0060    3.5610 c3        1 MOL     -0.276790
     99 C34         0.1180    2.3470    4.4680 c3        1 MOL     -0.276790
    100 H41         1.1870    4.8430    1.8140 hn        1 MOL      0.310424
    101 H42         0.4250    2.0030    2.0670 h1        1 MOL      0.128818
    102 H43        -0.3380    4.3860    3.6010 hc        1 MOL      0.012617
    103 H44        -2.2500    1.9910    3.3350 hc        1 MOL      0.063845
    104 H45        -2.2690    3.2680    4.5560 hc        1 MOL      0.063845
    105 H46        -2.4930    3.5430    2.7950 hc        1 MOL      0.063845
    106 H47        -0.2870    2.5910    5.4520 hc        1 MOL      0.063845
    107 H48        -0.2270    1.3310    4.2430 hc        1 MOL      0.063845
    108 H49         1.2020    2.3000    4.5220 hc        1 MOL      0.063845
    109 N10        -1.1340    2.3150    0.0090 n         1 MOL     -0.224347
    110 C35        -2.2920    2.3110   -0.8790 c3        1 MOL      0.125476
    111 C36        -3.6570    2.3550   -0.1440 c         1 MOL      0.323329
    112 O17        -3.7350    1.9480    1.0170 o         1 MOL     -0.269027
    113 C37        -2.1400    1.0440   -1.7530 c3        1 MOL     -0.475581
    114 C38        -3.1200    0.9950   -2.8930 c         1 MOL      0.745946
    115 N11        -3.3370    1.9440   -3.6630 n         1 MOL     -0.753433
    116 O18        -3.8950    0.0540   -2.9610 o         1 MOL     -0.586639
    117 H50        -0.5200    1.5130   -0.0380 hn        1 MOL      0.137633
    118 H51        -2.2110    3.2540   -1.4250 h1        1 MOL      0.009984
    119 H52        -2.1860    0.1540   -1.1340 hc        1 MOL      0.181857
    120 H53        -1.1610    1.0950   -2.2250 hc        1 MOL      0.181857
    121 H54        -2.8480    2.8270   -3.6320 hn        1 MOL      0.354311
    122 H55        -3.9180    1.7010   -4.4540 hn        1 MOL      0.354311
    123 N12        -4.7020    2.6500   -0.8300 n         1 MOL     -0.381994
    124 C39        -6.1250    2.3630   -0.4710 c3        1 MOL      0.107635
    125 C40        -6.4110    0.9650    0.0310 c         1 MOL      0.332065
    126 O19        -7.2220    0.7510    0.9350 o         1 MOL     -0.555609
    127 C41        -7.0210    2.7460   -1.6500 c3        1 MOL     -0.097711
    128 C42        -8.5240    2.4550   -1.5480 ca        1 MOL     -0.070995
    129 C43        -9.4010    3.4430   -1.0570 ca        1 MOL     -0.067724
    130 C44        -8.9690    1.2310   -1.9990 ca        1 MOL     -0.067724
    131 C45       -10.7870    3.1980   -1.0770 ca        1 MOL     -0.302349
    132 C46       -10.3280    1.0200   -2.1000 ca        1 MOL     -0.302349
    133 C47       -11.2170    1.9560   -1.6220 ca        1 MOL      0.438798
    134 O20       -12.5560    1.6760   -1.7160 oh        1 MOL     -0.644440
    135 H56        -4.5150    3.0860   -1.7190 hn        1 MOL      0.227984
    136 H57        -6.4050    2.9740    0.3890 h1        1 MOL      0.038289
    137 H58        -6.7000    2.3040   -2.5960 hc        1 MOL      0.052487
    138 H59        -6.9730    3.8070   -1.9100 hc        1 MOL      0.052487
    139 H60        -9.1270    4.4330   -0.7200 ha        1 MOL      0.092925
    140 H61        -8.3250    0.4550   -2.3690 ha        1 MOL      0.092925
    141 H62       -11.5140    3.9520   -0.8000 ha        1 MOL      0.147555
    142 H63       -10.7250    0.0690   -2.4310 ha        1 MOL      0.147555
    143 H64       -12.7780    0.7440   -1.8160 ho        1 MOL      0.439069
    144 N13        -5.8990   -0.0330   -0.6770 n         1 MOL      0.438622
    145 C48        -6.1170   -1.3790   -0.2450 c3        1 MOL      0.193990
    146 C49        -5.5870   -1.6800    1.1520 c         1 MOL      0.156699
    147 O21        -6.2580   -2.4280    1.8980 o         1 MOL     -0.486034
    148 C50        -5.5740   -2.3880   -1.2840 c3        1 MOL      0.011215
    149 C51        -6.3140   -2.4410   -2.5960 c3        1 MOL     -0.084810
    150 C52        -7.6210   -3.1980   -2.4490 c         1 MOL      0.616086
    151 O22        -8.6220   -2.4700   -2.6140 o         1 MOL     -0.707198
    152 O23        -7.5620   -4.4500   -2.2110 o         1 MOL     -0.707198
    153 H65        -5.3960    0.1620   -1.5290 hn        1 MOL     -0.081616
    154 H66        -7.2040   -1.5490   -0.1990 h1        1 MOL      0.003118
    155 H67        -5.5920   -3.3450   -0.7580 hc        1 MOL     -0.008945
    156 H68        -4.5110   -2.1700   -1.4540 hc        1 MOL     -0.008945
    157 H69        -5.6910   -2.8540   -3.3880 hc        1 MOL     -0.007282
    158 H70        -6.5410   -1.4020   -2.8320 hc        1 MOL     -0.007282
    159 N14        -4.4090   -1.1280    1.4150 n         1 MOL      0.026679
    160 C53        -3.5730   -1.2150    2.6580 c3        1 MOL     -0.116663
    161 C54        -4.1300   -0.3130    3.7690 c         1 MOL      0.384399
    162 O24        -4.0600   -0.6880    4.9680 o         1 MOL     -0.572843
    163 C55        -2.0730   -0.9140    2.3900 c3        1 MOL      0.089698
    164 C56        -1.4170   -1.9420    1.3850 c3        1 MOL     -0.252355
    165 C57        -0.1330   -1.4020    0.6850 c         1 MOL      0.939119
    166 O25         0.7200   -2.1130    0.1290 o         1 MOL     -0.879041
    167 O26         0.1210   -0.1470    0.7970 o         1 MOL     -0.879041
    168 H71        -4.1080   -0.4810    0.7140 hn        1 MOL     -0.068450
    169 H72        -3.5720   -2.2620    2.9580 h1        1 MOL      0.100149
    170 H73        -1.4960   -0.9400    3.3200 hc        1 MOL      0.057198
    171 H74        -2.2170    0.0230    1.8630 hc        1 MOL      0.057198
    172 H75        -2.1520   -2.1950    0.6210 hc        1 MOL      0.041370
    173 H76        -1.2840   -2.8350    1.9940 hc        1 MOL      0.041370
    174 N15        -4.6550    0.8730    3.4700 n         1 MOL      0.071998
    175 C58        -5.4010    1.6650    4.3740 c3        1 MOL     -0.231483
    176 H77        -5.3300    1.2370    5.3750 h1        1 MOL      0.073064
    177 H78        -5.0010    2.6800    4.3830 h1        1 MOL      0.073064
    178 H79        -6.4450    1.6870    4.0620 h1        1 MOL      0.073064
    179 H80        -4.5230    1.1920    2.5130 hn        1 MOL      0.018960
    180 Ca1         2.7370   -0.2990    0.1510 Ca        1 MOL      1.743021
    181 O27         2.8280    0.0130    3.0020 oh        1 MOL     -0.835860
    182 H81         3.2750    0.4770    3.7150 ho        1 MOL      0.391793
    183 H82         2.2380   -0.5890    3.4570 ho        1 MOL      0.391793
    184 O28         1.2920    1.5650   -1.2990 oh        1 MOL     -0.835860
    185 H83         0.7320    1.0290   -1.8620 ho        1 MOL      0.391793
    186 H84         2.0650    1.7430   -1.8370 ho        1 MOL      0.391793
    187 O29         5.4670   -0.1750    1.0890 oh        1 MOL     -0.835860
    188 H85         5.7190    0.4100    1.8020 ho        1 MOL      0.391793
    189 H86         5.3670   -1.0280    1.4970 ho        1 MOL      0.391793
@<TRIPOS>BOND
     1    1    2 1   
     2    1    4 1   
     3    1    5 1   
     4    1    6 1   
     5    2    3 2   
     6    2    7 1   
     7    7    8 1   
     8    7   15 1   
     9    8    9 1   
    10    8   11 1   
    11    8   16 1   
    12    9   10 2   
    13    9   19 1   
    14   11   12 1   
    15   11   17 1   
    16   11   18 1   
    17   12   13 1   
    18   12   14 1   
    19   19   20 1   
    20   19   27 1   
    21   20   21 1   
    22   20   23 1   
    23   20   28 1   
    24   21   22 2   
    25   21   38 1   
    26   23   24 1   
    27   23   25 1   
    28   23   29 1   
    29   24   26 1   
    30   24   30 1   
    31   24   31 1   
    32   25   32 1   
    33   25   33 1   
    34   25   34 1   
    35   26   35 1   
    36   26   36 1   
    37   26   37 1   
    38   38   39 1   
    39   38   46 1   
    40   39   40 1   
    41   39   42 1   
    42   39   47 1   
    43   40   41 2   
    44   40   50 1   
    45   42   43 1   
    46   42   48 1   
    47   42   49 1   
    48   43   44 1   
    49   43   45 1   
    50   50   51 1   
    51   50   54 1   
    52   51   52 1   
    53   51   55 1   
    54   51   56 1   
    55   52   53 2   
    56   52   57 1   
    57   57   58 1   
    58   57   65 1   
    59   58   59 1   
    60   58   61 1   
    61   58   66 1   
    62   59   60 2   
    63   59   69 1   
    64   61   62 1   
    65   61   67 1   
    66   61   68 1   
    67   62   63 1   
    68   62   64 1   
    69   69   70 1   
    70   69   73 1   
    71   70   71 1   
    72   70   74 1   
    73   70   75 1   
    74   71   72 2   
    75   71   76 1   
    76   76   77 1   
    77   76   85 1   
    78   77   78 1   
    79   77   80 1   
    80   77   86 1   
    81   78   79 2   
    82   78   93 1   
    83   80   81 1   
    84   80   87 1   
    85   80   88 1   
    86   81   82 1   
    87   81   89 1   
    88   81   90 1   
    89   82   83 1   
    90   82   84 2   
    91   83   91 1   
    92   83   92 1   
    93   93   94 1   
    94   93  100 1   
    95   94   95 1   
    96   94   97 1   
    97   94  101 1   
    98   95   96 2   
    99   95  109 1   
   100   97   98 1   
   101   97   99 1   
   102   97  102 1   
   103   98  103 1   
   104   98  104 1   
   105   98  105 1   
   106   99  106 1   
   107   99  107 1   
   108   99  108 1   
   109  109  110 1   
   110  109  117 1   
   111  110  111 1   
   112  110  113 1   
   113  110  118 1   
   114  111  112 2   
   115  111  123 1   
   116  113  114 1   
   117  113  119 1   
   118  113  120 1   
   119  114  115 1   
   120  114  116 2   
   121  115  121 1   
   122  115  122 1   
   123  123  124 1   
   124  123  135 1   
   125  124  125 1   
   126  124  127 1   
   127  124  136 1   
   128  125  126 2   
   129  125  144 1   
   130  127  128 1   
   131  127  137 1   
   132  127  138 1   
   133  128  129 ar  
   134  128  130 ar  
   135  129  131 ar  
   136  129  139 1   
   137  130  132 ar  
   138  130  140 1   
   139  131  133 ar  
   140  131  141 1   
   141  132  133 ar  
   142  132  142 1   
   143  133  134 1   
   144  134  143 1   
   145  144  145 1   
   146  144  153 1   
   147  145  146 1   
   148  145  148 1   
   149  145  154 1   
   150  146  147 2   
   151  146  159 1   
   152  148  149 1   
   153  148  155 1   
   154  148  156 1   
   155  149  150 1   
   156  149  157 1   
   157  149  158 1   
   158  150  151 1   
   159  150  152 1   
   160  159  160 1   
   161  159  168 1   
   162  160  161 1   
   163  160  163 1   
   164  160  169 1   
   165  161  162 2   
   166  161  174 1   
   167  163  164 1   
   168  163  170 1   
   169  163  171 1   
   170  164  165 1   
   171  164  172 1   
   172  164  173 1   
   173  165  166 1   
   174  165  167 1   
   175  174  175 1   
   176  174  179 1   
   177  175  176 1   
   178  175  177 1   
   179  175  178 1   
   180  181  182 1   
   181  181  183 1   
   182  184  185 1   
   183  184  186 1   
   184  187  188 1   
   185  187  189 1   
@<TRIPOS>SUBSTRUCTURE
     1 MOL         1 TEMP              0 ****  ****    0 ROOT
