@<TRIPOS>MOLECULE
MOL
  186   183     1     0     0
SMALL
resp


@<TRIPOS>ATOM
      1 C1          0.8630   -2.5750    5.9890 c3        1 MOL     -0.367576
      2 C2          1.3160   -2.5070    4.4900 c         1 MOL      0.717234
      3 O1          0.5600   -2.8820    3.5780 o         1 MOL     -0.553845
      4 H1          1.7400   -2.5510    6.6350 hc        1 MOL      0.090252
      5 H2          0.2220   -1.7230    6.2140 hc        1 MOL      0.090252
      6 H3          0.3120   -3.5000    6.1600 hc        1 MOL      0.090252
      7 N1          2.5220   -1.9970    4.2180 n         1 MOL     -0.622762
      8 C3          3.0120   -1.6670    2.8690 c3        1 MOL      0.398903
      9 C4          3.6170   -2.9590    2.2460 c         1 MOL      0.371145
     10 O2          4.6750   -3.4790    2.6960 o         1 MOL     -0.569321
     11 C5          4.0420   -0.5470    2.9750 c3        1 MOL     -0.293937
     12 C6          4.6630   -0.0990    1.6350 c         1 MOL      0.820642
     13 O3          4.1310   -0.4340    0.5560 o         1 MOL     -0.736633
     14 O4          5.6830    0.6100    1.6500 o         1 MOL     -0.736633
     15 H4          3.1410   -1.6480    4.9250 hn        1 MOL      0.306541
     16 H5          2.2160   -1.1750    2.3060 h1        1 MOL     -0.007748
     17 H6          4.7620   -0.9790    3.6800 hc        1 MOL      0.035443
     18 H7          3.5990    0.3530    3.4010 hc        1 MOL      0.035443
     19 N2          2.8740   -3.6100    1.3610 n         1 MOL     -0.110485
     20 C7          3.2450   -4.9820    0.8610 c3        1 MOL      0.238153
     21 C8          4.4260   -4.9110   -0.1370 c         1 MOL      0.272589
     22 O5          5.2780   -5.7160   -0.0490 o         1 MOL     -0.538436
     23 C9          1.9620   -5.6410    0.3170 c3        1 MOL      0.115121
     24 C10         0.7130   -5.6330    1.1810 c3        1 MOL      0.063469
     25 C11         2.3340   -7.0880   -0.1360 c3        1 MOL     -0.361618
     26 C12         0.9390   -6.3120    2.5020 c3        1 MOL     -0.139100
     27 H8          2.0390   -3.1360    1.0430 hn        1 MOL     -0.119882
     28 H9          3.6490   -5.5580    1.6950 h1        1 MOL      0.017106
     29 H10         1.7690   -5.1040   -0.6210 hc        1 MOL     -0.016106
     30 H11        -0.1510   -6.0870    0.7060 hc        1 MOL      0.038040
     31 H12         0.4180   -4.6170    1.4450 hc        1 MOL      0.038040
     32 H13         1.4330   -7.5450   -0.5240 hc        1 MOL      0.075304
     33 H14         3.0310   -6.9690   -0.9670 hc        1 MOL      0.075304
     34 H15         2.8080   -7.6190    0.6790 hc        1 MOL      0.075304
     35 H16         1.0880   -7.3820    2.3230 hc        1 MOL      0.013255
     36 H17         1.6960   -5.9130    3.1690 hc        1 MOL      0.013255
     37 H18        -0.0170   -6.2670    3.0250 hc        1 MOL      0.013255
     38 N3          4.3210   -4.0420   -1.0830 n         1 MOL     -0.080652
     39 C13         5.2680   -3.8970   -2.1800 c3        1 MOL      0.044691
     40 C14         6.4930   -2.9970   -1.9670 c         1 MOL      0.334834
     41 O6          7.4850   -2.8390   -2.7550 o         1 MOL     -0.551537
     42 C15         4.4970   -3.4760   -3.4970 c3        1 MOL     -0.347359
     43 C16         3.5590   -2.2960   -3.2300 c         1 MOL      0.809795
     44 O7          2.4680   -2.1820   -3.8820 o         1 MOL     -0.731173
     45 O8          3.7680   -1.4390   -2.3480 o         1 MOL     -0.731173
     46 H19         3.5010   -3.4540   -1.0650 hn        1 MOL      0.195850
     47 H20         5.6790   -4.8740   -2.3870 h1        1 MOL      0.077497
     48 H21         3.8800   -4.3720   -3.6400 hc        1 MOL      0.091280
     49 H22         5.1940   -3.3240   -4.3260 hc        1 MOL      0.091280
     50 N4          6.4010   -2.2760   -0.8410 n         1 MOL     -0.097430
     51 C17         7.4530   -1.4380   -0.1980 c3        1 MOL     -0.358293
     52 C18         7.5430   -0.0320   -0.8240 c         1 MOL      0.704793
     53 O9          8.6460    0.4010   -0.8480 o         1 MOL     -0.642506
     54 H23         5.4560   -2.1660   -0.4980 hn        1 MOL      0.144465
     55 H24         8.3790   -1.9700   -0.4080 h1        1 MOL      0.142944
     56 H25         7.2160   -1.4510    0.8620 h1        1 MOL      0.142944
     57 N5          6.5650    0.4340   -1.5470 n         1 MOL     -0.252379
     58 C19         6.7270    1.7510   -2.3080 c3        1 MOL      0.028763
     59 C20         6.8360    2.9370   -1.3160 c         1 MOL      0.408706
     60 O10         7.1650    4.0530   -1.7530 o         1 MOL     -0.586943
     61 C21         5.6070    2.1150   -3.2880 c3        1 MOL     -0.345492
     62 C22         4.2060    1.9190   -2.6350 c         1 MOL      0.906156
     63 O11         3.1560    1.7330   -3.2970 o         1 MOL     -0.816489
     64 O12         4.0460    2.0850   -1.4380 o         1 MOL     -0.816489
     65 H26         5.6730   -0.0380   -1.6260 hn        1 MOL      0.199875
     66 H27         7.6970    1.5610   -2.7700 h1        1 MOL      0.083793
     67 H28         5.7610    1.4960   -4.1680 hc        1 MOL      0.092841
     68 H29         5.7330    3.1490   -3.5940 hc        1 MOL      0.092841
     69 N6          6.6360    2.7530   -0.0410 n         1 MOL     -0.230126
     70 C23         6.6470    3.7460    1.0910 c3        1 MOL     -0.059572
     71 C24         5.3380    4.2480    1.6810 c         1 MOL      0.557024
     72 O13         5.4040    5.0570    2.5760 o         1 MOL     -0.599400
     73 H30         6.3390    1.8350    0.2620 hn        1 MOL      0.247510
     74 H31         7.1230    4.6600    0.7150 h1        1 MOL      0.058349
     75 H32         7.2990    3.3560    1.8630 h1        1 MOL      0.058349
     76 N7          4.2550    3.6690    1.2090 n         1 MOL     -0.344261
     77 C25         2.8910    4.1530    1.5570 c3        1 MOL     -0.058288
     78 C26         1.8880    3.0060    1.6540 c         1 MOL      0.607443
     79 O14         2.0890    2.0350    0.8910 o         1 MOL     -0.691055
     80 C27         2.2910    5.0960    0.4410 c3        1 MOL      0.003268
     81 C28         3.0640    6.4520    0.4240 c3        1 MOL     -0.244069
     82 C29         2.4680    7.5770   -0.4300 c         1 MOL      0.666104
     83 N8          2.8970    7.7620   -1.7010 n         1 MOL     -0.854137
     84 O15         1.6460    8.3140    0.0580 o         1 MOL     -0.571133
     85 H33         4.3550    2.8240    0.6610 hn        1 MOL      0.340411
     86 H34         2.8790    4.6500    2.5310 h1        1 MOL      0.071122
     87 H35         1.2270    5.2410    0.6450 hc        1 MOL      0.061623
     88 H36         2.4260    4.5490   -0.4810 hc        1 MOL      0.061623
     89 H37         4.0640    6.3390    0.0180 hc        1 MOL      0.089067
     90 H38         3.0450    6.8130    1.4580 hc        1 MOL      0.089067
     91 H39         3.7500    7.3320   -2.0420 hn        1 MOL      0.377173
     92 H40         2.3250    8.3980   -2.2450 hn        1 MOL      0.377173
     93 N9          0.7510    3.1670    2.3360 n         1 MOL     -0.473373
     94 C30        -0.3820    2.2850    2.2200 c3        1 MOL      0.140223
     95 C31        -1.3980    2.7890    1.1890 c         1 MOL      0.398893
     96 O16        -1.9360    3.9010    1.2690 o         1 MOL     -0.588419
     97 C32        -1.0380    2.1030    3.5950 c3        1 MOL      0.172902
     98 C33        -1.8750    0.8380    3.5730 c3        1 MOL     -0.319598
     99 C34        -0.0960    2.1720    4.8370 c3        1 MOL     -0.319598
    100 H41         0.6900    4.0170    2.8690 hn        1 MOL      0.278786
    101 H42        -0.0360    1.2820    1.9820 h1        1 MOL      0.109774
    102 H43        -1.7760    2.8800    3.7500 hc        1 MOL     -0.013872
    103 H44        -1.3870   -0.1240    3.4310 hc        1 MOL      0.071179
    104 H45        -2.3250    0.7720    4.5580 hc        1 MOL      0.071179
    105 H46        -2.6580    0.9820    2.8300 hc        1 MOL      0.071179
    106 H47         0.2700    3.1850    4.9650 hc        1 MOL      0.071179
    107 H48        -0.6340    1.8460    5.7260 hc        1 MOL      0.071179
    108 H49         0.7890    1.5420    4.7390 hc        1 MOL      0.071179
    109 N10        -1.7970    1.9340    0.2300 n         1 MOL      0.046766
    110 C35        -2.8830    2.1990   -0.6900 c3        1 MOL      0.025280
    111 C36        -4.2550    1.7390   -0.1000 c         1 MOL      0.306484
    112 O17        -4.1810    0.8590    0.7950 o         1 MOL     -0.289985
    113 C37        -2.5320    1.4360   -2.0220 c3        1 MOL     -0.437651
    114 C38        -3.6280    1.4620   -3.0830 c         1 MOL      0.673441
    115 N11        -4.1470    2.6280   -3.4010 n         1 MOL     -0.787567
    116 O18        -4.2830    0.4670   -3.4110 o         1 MOL     -0.489661
    117 H50        -1.3860    1.0080    0.2000 hn        1 MOL      0.052893
    118 H51        -2.8990    3.2630   -0.9220 h1        1 MOL      0.048240
    119 H52        -2.3820    0.3810   -1.7740 hc        1 MOL      0.158721
    120 H53        -1.6100    1.7770   -2.4970 hc        1 MOL      0.158721
    121 H54        -3.7920    3.4900   -3.0320 hn        1 MOL      0.355461
    122 H55        -4.8390    2.6890   -4.1380 hn        1 MOL      0.355461
    123 N12        -5.4480    2.1960   -0.5760 n         1 MOL     -0.448826
    124 C39        -6.6770    1.6930   -0.0680 c3        1 MOL      0.284543
    125 C40        -6.8130    0.1700   -0.1890 c         1 MOL      0.687729
    126 O19        -7.3710   -0.3310    0.7380 o         1 MOL     -0.551339
    127 C41        -7.7830    2.4430   -0.7570 c3        1 MOL     -0.262984
    128 C42        -9.1300    2.0670   -0.2470 ca        1 MOL      0.006713
    129 C43        -9.5420    2.3450    1.0810 ca        1 MOL     -0.135981
    130 C44       -10.0430    1.4340   -1.1180 ca        1 MOL     -0.135981
    131 C45       -10.8850    2.0710    1.4800 ca        1 MOL     -0.299408
    132 C46       -11.3620    1.0440   -0.6720 ca        1 MOL     -0.299408
    133 C47       -11.8130    1.3810    0.6520 ca        1 MOL      0.371484
    134 O20       -13.0380    1.0920    1.1130 oh        1 MOL     -0.505560
    135 H56        -5.5510    2.9670   -1.2170 hn        1 MOL      0.256700
    136 H57        -6.5960    1.8400    1.0140 h1        1 MOL     -0.001434
    137 H58        -7.7780    2.1960   -1.8180 hc        1 MOL      0.084774
    138 H59        -7.6180    3.5090   -0.6060 hc        1 MOL      0.084774
    139 H60        -8.8500    2.8880    1.7040 ha        1 MOL      0.137715
    140 H61        -9.7580    1.1240   -2.1170 ha        1 MOL      0.137715
    141 H62       -11.0090    2.3250    2.5300 ha        1 MOL      0.143271
    142 H63       -12.0680    0.5690   -1.3460 ha        1 MOL      0.143271
    143 H64       -13.5330    0.5730    0.4790 ho        1 MOL      0.371787
    144 N13        -6.1960   -0.4760   -1.1940 n         1 MOL     -0.554519
    145 C48        -6.2250   -1.9670   -1.2500 c3        1 MOL      0.026448
    146 C49        -5.4320   -2.6340   -0.1600 c         1 MOL      0.238164
    147 O21        -5.8870   -3.6160    0.4040 o         1 MOL     -0.471750
    148 C50        -5.6500   -2.4000   -2.5680 c3        1 MOL      0.202047
    149 C51        -6.6920   -2.2920   -3.6930 c3        1 MOL     -0.379272
    150 C52        -6.1610   -2.7630   -5.0620 c         1 MOL      0.769771
    151 O22        -5.7550   -1.9460   -5.9420 o         1 MOL     -0.746445
    152 O23        -6.1080   -3.9280   -5.3780 o         1 MOL     -0.746445
    153 H65        -5.5960    0.0280   -1.8340 hn        1 MOL      0.287500
    154 H66        -7.2600   -2.3090   -1.2360 h1        1 MOL      0.095815
    155 H67        -5.3780   -3.4450   -2.3950 hc        1 MOL     -0.002428
    156 H68        -4.7410   -1.8390   -2.8270 hc        1 MOL     -0.002428
    157 H69        -7.1020   -1.2830   -3.7820 hc        1 MOL      0.042729
    158 H70        -7.5040   -2.9700   -3.4380 hc        1 MOL      0.042729
    159 N14        -4.2500   -2.1010    0.2170 n         1 MOL     -0.079418
    160 C53        -3.5290   -2.5500    1.3690 c3        1 MOL     -0.243406
    161 C54        -4.2600   -2.2130    2.7070 c         1 MOL      0.437672
    162 O24        -4.0430   -2.9090    3.7400 o         1 MOL     -0.565162
    163 C55        -2.1390   -1.8690    1.3720 c3        1 MOL      0.188009
    164 C56        -1.2790   -2.3100    0.2120 c3        1 MOL      0.241018
    165 C57         0.0290   -1.4660    0.1310 c         1 MOL      0.489102
    166 O25         1.0770   -2.1290   -0.1610 o         1 MOL     -0.604863
    167 O26         0.0250   -0.2100    0.2460 o         1 MOL     -0.604863
    168 H71        -3.7310   -1.3480   -0.2190 hn        1 MOL      0.195560
    169 H72        -3.2710   -3.5990    1.2480 h1        1 MOL      0.131447
    170 H73        -1.5950   -2.2320    2.2390 hc        1 MOL     -0.015259
    171 H74        -2.1700   -0.7800    1.3760 hc        1 MOL     -0.015259
    172 H75        -1.9350   -2.2040   -0.6600 hc        1 MOL     -0.107069
    173 H76        -1.0550   -3.3710    0.2420 hc        1 MOL     -0.107069
    174 N15        -5.0780   -1.1470    2.7190 n         1 MOL     -0.006384
    175 C58        -5.8000   -0.8710    3.9370 c3        1 MOL     -0.316886
    176 H77        -5.6720   -1.7020    4.6300 h1        1 MOL      0.098183
    177 H78        -5.4150    0.0420    4.3900 h1        1 MOL      0.098183
    178 H79        -6.8590   -0.7470    3.7120 h1        1 MOL      0.098183
    179 H80        -5.0620   -0.4630    1.9700 hn        1 MOL      0.086727
    180 Ca1         2.2550    0.2960   -1.0240 Ca        1 MOL      1.765053
    181 O27         0.8160    2.6500   -1.8670 oh        1 MOL     -0.906150
    182 H81         1.6000    3.1870   -1.8340 ho        1 MOL      0.427254
    183 H82         0.6420    2.5160   -2.7920 ho        1 MOL      0.427254
    184 O28         0.6830   -0.2820   -3.3040 oh        1 MOL     -0.906150
    185 H83         0.3180    0.0950   -4.1060 ho        1 MOL      0.427254
    186 H84         1.1390   -1.0740   -3.5970 ho        1 MOL      0.427254
@<TRIPOS>BOND
     1    1    2 1   
     2    1    4 1   
     3    1    5 1   
     4    1    6 1   
     5    2    3 2   
     6    2    7 1   
     7    7    8 1   
     8    7   15 1   
     9    8    9 1   
    10    8   11 1   
    11    8   16 1   
    12    9   10 2   
    13    9   19 1   
    14   11   12 1   
    15   11   17 1   
    16   11   18 1   
    17   12   13 1   
    18   12   14 1   
    19   19   20 1   
    20   19   27 1   
    21   20   21 1   
    22   20   23 1   
    23   20   28 1   
    24   21   22 2   
    25   21   38 1   
    26   23   24 1   
    27   23   25 1   
    28   23   29 1   
    29   24   26 1   
    30   24   30 1   
    31   24   31 1   
    32   25   32 1   
    33   25   33 1   
    34   25   34 1   
    35   26   35 1   
    36   26   36 1   
    37   26   37 1   
    38   38   39 1   
    39   38   46 1   
    40   39   40 1   
    41   39   42 1   
    42   39   47 1   
    43   40   41 2   
    44   40   50 1   
    45   42   43 1   
    46   42   48 1   
    47   42   49 1   
    48   43   44 1   
    49   43   45 1   
    50   50   51 1   
    51   50   54 1   
    52   51   52 1   
    53   51   55 1   
    54   51   56 1   
    55   52   53 2   
    56   52   57 1   
    57   57   58 1   
    58   57   65 1   
    59   58   59 1   
    60   58   61 1   
    61   58   66 1   
    62   59   60 2   
    63   59   69 1   
    64   61   62 1   
    65   61   67 1   
    66   61   68 1   
    67   62   63 1   
    68   62   64 1   
    69   69   70 1   
    70   69   73 1   
    71   70   71 1   
    72   70   74 1   
    73   70   75 1   
    74   71   72 2   
    75   71   76 1   
    76   76   77 1   
    77   76   85 1   
    78   77   78 1   
    79   77   80 1   
    80   77   86 1   
    81   78   79 2   
    82   78   93 1   
    83   80   81 1   
    84   80   87 1   
    85   80   88 1   
    86   81   82 1   
    87   81   89 1   
    88   81   90 1   
    89   82   83 1   
    90   82   84 2   
    91   83   91 1   
    92   83   92 1   
    93   93   94 1   
    94   93  100 1   
    95   94   95 1   
    96   94   97 1   
    97   94  101 1   
    98   95   96 2   
    99   95  109 1   
   100   97   98 1   
   101   97   99 1   
   102   97  102 1   
   103   98  103 1   
   104   98  104 1   
   105   98  105 1   
   106   99  106 1   
   107   99  107 1   
   108   99  108 1   
   109  109  110 1   
   110  109  117 1   
   111  110  111 1   
   112  110  113 1   
   113  110  118 1   
   114  111  112 2   
   115  111  123 1   
   116  113  114 1   
   117  113  119 1   
   118  113  120 1   
   119  114  115 1   
   120  114  116 2   
   121  115  121 1   
   122  115  122 1   
   123  123  124 1   
   124  123  135 1   
   125  124  125 1   
   126  124  127 1   
   127  124  136 1   
   128  125  126 2   
   129  125  144 1   
   130  127  128 1   
   131  127  137 1   
   132  127  138 1   
   133  128  129 ar  
   134  128  130 ar  
   135  129  131 ar  
   136  129  139 1   
   137  130  132 ar  
   138  130  140 1   
   139  131  133 ar  
   140  131  141 1   
   141  132  133 ar  
   142  132  142 1   
   143  133  134 1   
   144  134  143 1   
   145  144  145 1   
   146  144  153 1   
   147  145  146 1   
   148  145  148 1   
   149  145  154 1   
   150  146  147 2   
   151  146  159 1   
   152  148  149 1   
   153  148  155 1   
   154  148  156 1   
   155  149  150 1   
   156  149  157 1   
   157  149  158 1   
   158  150  151 1   
   159  150  152 1   
   160  159  160 1   
   161  159  168 1   
   162  160  161 1   
   163  160  163 1   
   164  160  169 1   
   165  161  162 2   
   166  161  174 1   
   167  163  164 1   
   168  163  170 1   
   169  163  171 1   
   170  164  165 1   
   171  164  172 1   
   172  164  173 1   
   173  165  166 1   
   174  165  167 1   
   175  174  175 1   
   176  174  179 1   
   177  175  176 1   
   178  175  177 1   
   179  175  178 1   
   180  181  182 1   
   181  181  183 1   
   182  184  185 1   
   183  184  186 1   
@<TRIPOS>SUBSTRUCTURE
     1 MOL         1 TEMP              0 ****  ****    0 ROOT
