@<TRIPOS>MOLECULE
MOL
  179   176     1     0     0
SMALL
resp


@<TRIPOS>ATOM
      1 C1          2.7030    2.7990    4.4330 c3        1 MOL     -0.553242
      2 C2          1.7930    2.6070    3.2120 c         1 MOL      0.543975
      3 O1          2.2160    2.5000    2.0670 o         1 MOL     -0.377145
      4 H1          3.0410    1.8270    4.7900 hc        1 MOL      0.152998
      5 H2          3.5660    3.4030    4.1530 hc        1 MOL      0.152998
      6 H3          2.1490    3.3030    5.2250 hc        1 MOL      0.152998
      7 N1          0.4810    2.5890    3.3840 n         1 MOL     -0.488225
      8 C3         -0.5710    2.5370    2.3110 c3        1 MOL     -0.012121
      9 C4         -0.7380    3.8860    1.5960 c         1 MOL      0.584863
     10 O2         -1.6750    4.5900    1.6350 o         1 MOL     -0.473349
     11 C5         -1.9060    1.9780    2.8690 c3        1 MOL     -0.170508
     12 C6         -2.9890    1.7850    1.7280 c         1 MOL      0.632356
     13 O3         -4.1520    1.5110    2.1060 o         1 MOL     -0.636625
     14 O4         -2.6200    1.7620    0.5280 o         1 MOL     -0.636625
     15 H4          0.1120    2.7600    4.3060 hn        1 MOL      0.315134
     16 H5         -0.2540    1.8300    1.5400 h1        1 MOL      0.036620
     17 H6         -2.3160    2.6610    3.6010 hc        1 MOL      0.059072
     18 H7         -1.7120    1.0720    3.4410 hc        1 MOL      0.059072
     19 N2          0.3690    4.2520    0.8310 n         1 MOL     -0.474326
     20 C7          0.5450    5.5150    0.0140 c3        1 MOL     -0.036188
     21 C8         -0.6340    5.8750   -0.9560 c         1 MOL      0.559131
     22 O5         -0.6630    7.0160   -1.3980 o         1 MOL     -0.557068
     23 C9          1.8880    5.3940   -0.7800 c3        1 MOL     -0.182431
     24 C10         3.1750    5.2140   -0.0350 c3        1 MOL     -0.089214
     25 C11         3.4220    6.4600    0.8790 c3        1 MOL      0.106928
     26 C12         4.8420    6.3430    1.4880 c3        1 MOL      0.122047
     27 N3          5.2190    7.4530    2.3490 n4        1 MOL     -0.371414
     28 H8          1.0440    3.5210    0.6700 hn        1 MOL      0.369742
     29 H9          0.6350    6.3800    0.6760 h1        1 MOL      0.055374
     30 H10         1.9680    6.2820   -1.4080 hc        1 MOL      0.104875
     31 H11         1.8010    4.6100   -1.5410 hc        1 MOL      0.104875
     32 H12         4.0150    5.2720   -0.7220 hc        1 MOL      0.045996
     33 H13         3.2180    4.3910    0.6800 hc        1 MOL      0.045996
     34 H14         2.8630    6.4260    1.8090 hc        1 MOL     -0.000806
     35 H15         3.2850    7.4360    0.4160 hc        1 MOL     -0.000806
     36 H16         5.5320    6.3640    0.6540 hx        1 MOL      0.041490
     37 H17         4.9430    5.4680    2.1340 hx        1 MOL      0.041490
     38 H18         6.2130    7.3490    2.4640 hn        1 MOL      0.325502
     39 H19         5.0140    8.3810    2.0240 hn        1 MOL      0.325502
     40 H20         4.9770    7.1890    3.3000 hn        1 MOL      0.325502
     41 N4         -1.4730    4.8720   -1.3380 n         1 MOL     -0.262683
     42 C13        -2.6810    5.0310   -2.2200 c3        1 MOL      0.089322
     43 C14        -4.0460    4.7160   -1.5650 c         1 MOL      0.380491
     44 O6         -5.1220    4.8220   -2.1700 o         1 MOL     -0.527224
     45 C15        -2.4900    4.3680   -3.5480 c3        1 MOL     -0.305674
     46 C16        -2.1690    2.8500   -3.5450 c         1 MOL      0.793545
     47 O7         -2.6060    2.1130   -2.6300 o         1 MOL     -0.740715
     48 O8         -1.2510    2.3800   -4.2550 o         1 MOL     -0.740715
     49 H21        -1.5360    4.1180   -0.6580 hn        1 MOL      0.067810
     50 H22        -2.8140    6.0930   -2.4480 h1        1 MOL      0.104971
     51 H23        -1.7580    4.9780   -4.0860 hc        1 MOL      0.091546
     52 H24        -3.3750    4.4600   -4.1780 hc        1 MOL      0.091546
     53 N5         -4.0800    4.3730   -0.2850 n         1 MOL     -0.236003
     54 C17        -5.4250    4.0650    0.3730 c3        1 MOL     -0.190880
     55 C18        -6.1040    2.7410    0.0880 c         1 MOL      0.492026
     56 O9         -7.1810    2.4710    0.7210 o         1 MOL     -0.588953
     57 H25        -3.2230    4.2470    0.2430 hn        1 MOL      0.197523
     58 H26        -6.1850    4.7900    0.0970 h1        1 MOL      0.130124
     59 H27        -5.4070    4.1040    1.4640 h1        1 MOL      0.130124
     60 N6         -5.6170    1.8710   -0.7480 n         1 MOL     -0.213127
     61 C19        -6.3120    0.6320   -1.1170 c3        1 MOL     -0.025760
     62 C20        -6.4230   -0.4650   -0.0560 c         1 MOL      0.228454
     63 O10        -7.0650   -1.4870   -0.2240 o         1 MOL     -0.439367
     64 C21        -5.8130    0.0430   -2.4410 c3        1 MOL     -0.274250
     65 C22        -4.5210   -0.7250   -2.2910 c         1 MOL      0.455227
     66 N7         -4.2900   -1.6290   -3.2390 n         1 MOL     -0.567701
     67 O11        -3.7380   -0.6660   -1.3040 o         1 MOL     -0.420249
     68 H28        -4.7590    2.1850   -1.1880 hn        1 MOL      0.243225
     69 H29        -7.3650    0.8830   -1.2320 h1        1 MOL      0.124955
     70 H30        -5.7190    0.8210   -3.2070 hc        1 MOL      0.117925
     71 H31        -6.5780   -0.6460   -2.8060 hc        1 MOL      0.117925
     72 H32        -4.9970   -1.6640   -3.9520 hn        1 MOL      0.317582
     73 H33        -3.4320   -2.1550   -3.1690 hn        1 MOL      0.317582
     74 N8         -5.7500   -0.3490    1.0620 n         1 MOL      0.081468
     75 C23        -5.9560   -1.2670    2.1940 c3        1 MOL     -0.316390
     76 C24        -5.0700   -2.4490    2.2130 c         1 MOL      0.753898
     77 O12        -5.2420   -3.3100    3.0720 o         1 MOL     -0.622288
     78 H34        -5.3180    0.5450    1.2550 hn        1 MOL      0.217578
     79 H35        -6.9860   -1.6210    2.2630 h1        1 MOL      0.111887
     80 H36        -5.7180   -0.7360    3.1130 h1        1 MOL      0.111887
     81 N9         -4.0330   -2.4240    1.4000 n         1 MOL     -0.368144
     82 C25        -3.0040   -3.3930    1.3010 c3        1 MOL      0.058857
     83 C26        -1.6630   -2.7090    1.2000 c         1 MOL      0.618715
     84 O13        -1.5720   -1.6930    0.5210 o         1 MOL     -0.644414
     85 C27        -3.2370   -4.1640    0.0670 c3        1 MOL      0.167452
     86 C28        -4.5680   -4.8360   -0.0090 ca        1 MOL     -0.171628
     87 C29        -5.6910   -4.3030   -0.7630 ca        1 MOL     -0.034524
     88 C30        -4.7740   -6.0410    0.6850 ca        1 MOL     -0.034524
     89 C31        -6.9960   -4.9110   -0.7830 ca        1 MOL     -0.408722
     90 C32        -5.9790   -6.7780    0.5590 ca        1 MOL     -0.408722
     91 C33        -7.0550   -6.1600   -0.1360 ca        1 MOL      0.500713
     92 O14        -8.2410   -6.8410   -0.1890 oh        1 MOL     -0.489185
     93 H37        -3.9700   -1.6630    0.7440 hn        1 MOL      0.066494
     94 H38        -3.0490   -4.1210    2.1020 h1        1 MOL      0.037289
     95 H39        -2.5050   -4.9650   -0.0700 hc        1 MOL     -0.021681
     96 H40        -3.1910   -3.5050   -0.8000 hc        1 MOL     -0.021681
     97 H41        -5.5640   -3.3730   -1.2860 ha        1 MOL      0.102254
     98 H42        -4.0240   -6.4770    1.3300 ha        1 MOL      0.102254
     99 H43        -7.7580   -4.3640   -1.3190 ha        1 MOL      0.190067
    100 H44        -6.1150   -7.6660    1.1430 ha        1 MOL      0.190067
    101 H45        -8.1320   -7.5810    0.4120 ho        1 MOL      0.323278
    102 N10        -0.6530   -3.3760    1.7590 n         1 MOL     -0.666051
    103 C34         0.6960   -2.8290    1.7600 c3        1 MOL      0.048902
    104 C35         1.6140   -3.8070    0.9820 c         1 MOL      0.613587
    105 O15         1.7350   -5.0200    1.2850 o         1 MOL     -0.566806
    106 C36         1.1390   -2.6300    3.2250 c3        1 MOL      0.133395
    107 C37         0.3230   -1.5200    3.9480 c3        1 MOL      0.087167
    108 C38         2.6310   -2.2500    3.3050 c3        1 MOL     -0.358034
    109 C39         0.6390   -1.3270    5.4910 c3        1 MOL     -0.140061
    110 H46        -0.8700   -4.1820    2.3220 hn        1 MOL      0.347268
    111 H47         0.6360   -1.8440    1.2960 h1        1 MOL      0.166375
    112 H48         1.0550   -3.5930    3.7290 hc        1 MOL      0.006987
    113 H49        -0.7460   -1.7610    3.9550 hc        1 MOL      0.006177
    114 H50         0.3680   -0.5510    3.4320 hc        1 MOL      0.006177
    115 H51         3.1910   -3.0850    2.8850 hc        1 MOL      0.088308
    116 H52         2.7520   -1.3610    2.6820 hc        1 MOL      0.088308
    117 H53         3.0230   -2.0630    4.3100 hc        1 MOL      0.088308
    118 H54         0.1590   -0.4540    5.9290 hc        1 MOL      0.028788
    119 H55         0.2720   -2.2210    5.9770 hc        1 MOL      0.028788
    120 H56         1.7170   -1.2960    5.6780 hc        1 MOL      0.028788
    121 N11         2.2580   -3.1890   -0.0090 n         1 MOL     -0.345272
    122 C40         3.3050   -3.8420   -0.8600 c3        1 MOL     -0.067822
    123 C41         4.7440   -3.7810   -0.2740 c         1 MOL      0.429340
    124 O16         5.0760   -2.8390    0.4800 o         1 MOL     -0.322462
    125 C42         3.2090   -3.4150   -2.3100 c3        1 MOL      0.053866
    126 O17         3.5680   -2.0680   -2.5060 oh        1 MOL     -0.295193
    127 H57         2.1990   -2.2020   -0.2270 hn        1 MOL      0.216908
    128 H58         2.9990   -4.8840   -0.9410 h1        1 MOL      0.101590
    129 H59         2.2680   -3.6890   -2.7850 h1        1 MOL      0.027416
    130 H60         3.9620   -3.9640   -2.8840 h1        1 MOL      0.027416
    131 H61         3.3430   -1.8700   -3.4130 ho        1 MOL      0.334024
    132 N12         5.5630   -4.7750   -0.7610 n         1 MOL     -0.396542
    133 C43         7.0190   -4.7470   -0.5470 c3        1 MOL      0.092002
    134 C44         7.6660   -3.3970   -1.0580 c         1 MOL      0.502060
    135 O18         8.6200   -2.8580   -0.3920 o         1 MOL     -0.510881
    136 C45         7.6590   -5.9920   -1.1570 c3        1 MOL     -0.268491
    137 H62         5.1390   -5.5860   -1.1770 hn        1 MOL      0.277725
    138 H63         7.1800   -4.7390    0.5260 h1        1 MOL      0.073537
    139 H64         8.6400   -6.0990   -0.6770 hc        1 MOL      0.087900
    140 H65         7.1580   -6.9400   -0.9610 hc        1 MOL      0.087900
    141 H66         7.9080   -5.8320   -2.2110 hc        1 MOL      0.087900
    142 N13         7.2200   -2.9380   -2.2300 n         1 MOL     -0.420881
    143 C46         7.7000   -1.6300   -2.7380 c3        1 MOL      0.160795
    144 C47         7.2310   -0.5130   -1.8120 c         1 MOL      0.313612
    145 O19         8.0770    0.4360   -1.6020 o         1 MOL     -0.500617
    146 C48         7.1260   -1.4460   -4.1340 c3        1 MOL     -0.287577
    147 H67         6.4590   -3.3470   -2.7480 hn        1 MOL      0.295119
    148 H68         8.7830   -1.5420   -2.8550 h1        1 MOL      0.097133
    149 H69         6.0570   -1.6340   -4.2430 hc        1 MOL      0.078605
    150 H70         7.3720   -0.4590   -4.5180 hc        1 MOL      0.078605
    151 H71         7.4620   -2.1960   -4.8500 hc        1 MOL      0.078605
    152 N14         6.0140   -0.5240   -1.2450 n         1 MOL      0.155978
    153 C49         5.5580    0.5800   -0.3930 c3        1 MOL     -0.347789
    154 C50         6.2500    0.6130    0.9600 c         1 MOL      0.536985
    155 O20         6.6090    1.6320    1.4770 o         1 MOL     -0.582730
    156 C51         4.0000    0.4660   -0.1240 c3        1 MOL      0.501298
    157 C52         3.0130    1.0110   -1.2210 c3        1 MOL     -0.023537
    158 C53         1.5560    0.7990   -0.8590 c         1 MOL      0.649496
    159 O21         1.1320   -0.3210   -0.4730 o         1 MOL     -0.753037
    160 O22         0.7090    1.7280   -0.9000 o         1 MOL     -0.753037
    161 H72         5.3770   -1.3000   -1.3460 hn        1 MOL     -0.263502
    162 H73         5.9020    1.4940   -0.8810 h1        1 MOL      0.115541
    163 H74         3.8360    0.9970    0.8180 hc        1 MOL     -0.145419
    164 H75         3.6570   -0.5350    0.1160 hc        1 MOL     -0.145419
    165 H76         3.1310    0.5210   -2.1840 hc        1 MOL     -0.045466
    166 H77         3.2470    2.0730   -1.1970 hc        1 MOL     -0.045466
    167 N15         6.5290   -0.5320    1.5960 n         1 MOL     -0.057370
    168 C54         7.3950   -0.6230    2.7370 c3        1 MOL     -0.216794
    169 H78         7.5390   -1.6700    3.0000 h1        1 MOL      0.088817
    170 H79         8.3580   -0.1720    2.5000 h1        1 MOL      0.088817
    171 H80         6.9450   -0.0960    3.5790 h1        1 MOL      0.088817
    172 H81         6.1200   -1.3720    1.2190 hn        1 MOL      0.075488
    173 Ca1        -1.3940    0.3660   -1.2820 Ca        1 MOL      1.749911
    174 O23        -0.1490    0.2730   -3.7090 oh        1 MOL     -0.855869
    175 H82         0.7740    0.5030   -3.7810 ho        1 MOL      0.415543
    176 H83        -0.6200    0.9830   -4.1410 ho        1 MOL      0.415543
    177 O24        -1.4170   -1.9980   -2.7840 oh        1 MOL     -0.855869
    178 H84        -1.2340   -2.0910   -3.7150 ho        1 MOL      0.415543
    179 H85        -1.0610   -2.7890   -2.3870 ho        1 MOL      0.415543
@<TRIPOS>BOND
     1    1    2 1   
     2    1    4 1   
     3    1    5 1   
     4    1    6 1   
     5    2    3 2   
     6    2    7 1   
     7    7    8 1   
     8    7   15 1   
     9    8    9 1   
    10    8   11 1   
    11    8   16 1   
    12    9   10 2   
    13    9   19 1   
    14   11   12 1   
    15   11   17 1   
    16   11   18 1   
    17   12   13 1   
    18   12   14 1   
    19   19   20 1   
    20   19   28 1   
    21   20   21 1   
    22   20   23 1   
    23   20   29 1   
    24   21   22 2   
    25   21   41 1   
    26   23   24 1   
    27   23   30 1   
    28   23   31 1   
    29   24   25 1   
    30   24   32 1   
    31   24   33 1   
    32   25   26 1   
    33   25   34 1   
    34   25   35 1   
    35   26   27 1   
    36   26   36 1   
    37   26   37 1   
    38   27   38 1   
    39   27   39 1   
    40   27   40 1   
    41   41   42 1   
    42   41   49 1   
    43   42   43 1   
    44   42   45 1   
    45   42   50 1   
    46   43   44 2   
    47   43   53 1   
    48   45   46 1   
    49   45   51 1   
    50   45   52 1   
    51   46   47 1   
    52   46   48 1   
    53   53   54 1   
    54   53   57 1   
    55   54   55 1   
    56   54   58 1   
    57   54   59 1   
    58   55   56 2   
    59   55   60 1   
    60   60   61 1   
    61   60   68 1   
    62   61   62 1   
    63   61   64 1   
    64   61   69 1   
    65   62   63 2   
    66   62   74 1   
    67   64   65 1   
    68   64   70 1   
    69   64   71 1   
    70   65   66 1   
    71   65   67 2   
    72   66   72 1   
    73   66   73 1   
    74   74   75 1   
    75   74   78 1   
    76   75   76 1   
    77   75   79 1   
    78   75   80 1   
    79   76   77 2   
    80   76   81 1   
    81   81   82 1   
    82   81   93 1   
    83   82   83 1   
    84   82   85 1   
    85   82   94 1   
    86   83   84 2   
    87   83  102 1   
    88   85   86 1   
    89   85   95 1   
    90   85   96 1   
    91   86   87 ar  
    92   86   88 ar  
    93   87   89 ar  
    94   87   97 1   
    95   88   90 ar  
    96   88   98 1   
    97   89   91 ar  
    98   89   99 1   
    99   90   91 ar  
   100   90  100 1   
   101   91   92 1   
   102   92  101 1   
   103  102  103 1   
   104  102  110 1   
   105  103  104 1   
   106  103  106 1   
   107  103  111 1   
   108  104  105 2   
   109  104  121 1   
   110  106  107 1   
   111  106  108 1   
   112  106  112 1   
   113  107  109 1   
   114  107  113 1   
   115  107  114 1   
   116  108  115 1   
   117  108  116 1   
   118  108  117 1   
   119  109  118 1   
   120  109  119 1   
   121  109  120 1   
   122  121  122 1   
   123  121  127 1   
   124  122  123 1   
   125  122  125 1   
   126  122  128 1   
   127  123  124 2   
   128  123  132 1   
   129  125  126 1   
   130  125  129 1   
   131  125  130 1   
   132  126  131 1   
   133  132  133 1   
   134  132  137 1   
   135  133  134 1   
   136  133  136 1   
   137  133  138 1   
   138  134  135 2   
   139  134  142 1   
   140  136  139 1   
   141  136  140 1   
   142  136  141 1   
   143  142  143 1   
   144  142  147 1   
   145  143  144 1   
   146  143  146 1   
   147  143  148 1   
   148  144  145 2   
   149  144  152 1   
   150  146  149 1   
   151  146  150 1   
   152  146  151 1   
   153  152  153 1   
   154  152  161 1   
   155  153  154 1   
   156  153  156 1   
   157  153  162 1   
   158  154  155 2   
   159  154  167 1   
   160  156  157 1   
   161  156  163 1   
   162  156  164 1   
   163  157  158 1   
   164  157  165 1   
   165  157  166 1   
   166  158  159 1   
   167  158  160 1   
   168  167  168 1   
   169  167  172 1   
   170  168  169 1   
   171  168  170 1   
   172  168  171 1   
   173  174  175 1   
   174  174  176 1   
   175  177  178 1   
   176  177  179 1   
@<TRIPOS>SUBSTRUCTURE
     1 MOL         1 TEMP              0 ****  ****    0 ROOT
