@<TRIPOS>MOLECULE
MOL
  189   185     1     0     0
SMALL
resp


@<TRIPOS>ATOM
      1 C1          0.4880   -3.3050    6.1310 c3        1 MOL     -0.329103
      2 C2          0.8200   -3.4870    4.6230 c         1 MOL      0.753343
      3 O1         -0.1360   -3.6100    3.8720 o         1 MOL     -0.601289
      4 H1          1.2210   -2.6400    6.5860 hc        1 MOL      0.069700
      5 H2         -0.5080   -2.8740    6.2350 hc        1 MOL      0.069700
      6 H3          0.5180   -4.2740    6.6290 hc        1 MOL      0.069700
      7 N1          2.0510   -3.3900    4.2370 n         1 MOL     -0.699316
      8 C3          2.5450   -3.3230    2.8380 c3        1 MOL      0.395365
      9 C4          2.2590   -4.6220    2.0670 c         1 MOL      0.377937
     10 O2          2.7370   -5.6730    2.4820 o         1 MOL     -0.577069
     11 C5          4.0080   -2.9470    2.8650 c3        1 MOL     -0.459454
     12 C6          4.5940   -2.5780    1.4970 c         1 MOL      0.867538
     13 O3          3.8240   -2.3980    0.5440 o         1 MOL     -0.707549
     14 O4          5.8280   -2.3520    1.4420 o         1 MOL     -0.707549
     15 H4          2.7420   -3.3440    4.9810 hn        1 MOL      0.333017
     16 H5          1.9690   -2.4940    2.4170 h1        1 MOL      0.013818
     17 H6          4.5130   -3.8650    3.1650 hc        1 MOL      0.073214
     18 H7          4.1890   -2.1710    3.5960 hc        1 MOL      0.073214
     19 N2          1.6880   -4.4630    0.8630 n         1 MOL      0.015724
     20 C7          1.3270   -5.5110   -0.1300 c3        1 MOL     -0.246948
     21 C8          1.9570   -5.3110   -1.4910 c         1 MOL      0.598800
     22 O5          1.6520   -6.0480   -2.4170 o         1 MOL     -0.582258
     23 C9         -0.2050   -5.8610   -0.1210 c3        1 MOL      0.166382
     24 C10        -1.0360   -4.8260   -0.8720 c3        1 MOL     -0.049345
     25 C11        -0.6810   -6.0580    1.3140 c3        1 MOL     -0.201989
     26 C12        -2.5260   -5.1440   -0.9490 c3        1 MOL     -0.268593
     27 H8          1.3760   -3.5290    0.6060 hn        1 MOL      0.263584
     28 H9          1.8860   -6.3820    0.2170 h1        1 MOL      0.089914
     29 H10        -0.3130   -6.7960   -0.6730 hc        1 MOL     -0.019772
     30 H11        -0.6970   -4.7460   -1.9020 hc        1 MOL      0.063129
     31 H12        -0.9450   -3.9010   -0.3000 hc        1 MOL      0.063129
     32 H13        -0.0500   -6.7260    1.9090 hc        1 MOL      0.036727
     33 H14        -0.7950   -5.1260    1.8630 hc        1 MOL      0.036727
     34 H15        -1.6890   -6.4840    1.3390 hc        1 MOL      0.036727
     35 H16        -2.5750   -6.1810   -1.2920 hc        1 MOL      0.064693
     36 H17        -3.0670   -5.0900   -0.0000 hc        1 MOL      0.064693
     37 H18        -2.8850   -4.5300   -1.7730 hc        1 MOL      0.064693
     38 N3          2.8180   -4.3020   -1.6170 n         1 MOL     -0.386112
     39 C13         3.3840   -3.9770   -2.9640 c3        1 MOL     -0.047338
     40 C14         4.8020   -3.4060   -3.0090 c         1 MOL      0.525415
     41 O6          5.3370   -3.3120   -4.0720 o         1 MOL     -0.539794
     42 C15         2.3310   -3.0760   -3.7350 c3        1 MOL     -0.154627
     43 C16         1.9110   -1.8030   -3.0410 c         1 MOL      0.731490
     44 O7          2.7230   -1.3750   -2.2010 o         1 MOL     -0.677949
     45 O8          0.8770   -1.1940   -3.3530 o         1 MOL     -0.677949
     46 H19         2.8840   -3.6900   -0.8170 hn        1 MOL      0.022813
     47 H20         3.4620   -4.9160   -3.5170 h1        1 MOL      0.103678
     48 H21         1.3920   -3.6260   -3.8640 hc        1 MOL      0.059373
     49 H22         2.6150   -2.9250   -4.7730 hc        1 MOL      0.059373
     50 N4          5.3810   -3.0280   -1.8170 n         1 MOL     -0.325442
     51 C17         6.7790   -2.6560   -1.7940 c3        1 MOL     -0.179192
     52 C18         7.1350   -1.2330   -2.3310 c         1 MOL      0.461452
     53 O9          8.2580   -0.9390   -2.6340 o         1 MOL     -0.573553
     54 H23         4.8850   -3.1510   -0.9510 hn        1 MOL      0.283808
     55 H24         7.3400   -3.4270   -2.3160 h1        1 MOL      0.094023
     56 H25         7.0660   -2.7970   -0.7560 h1        1 MOL      0.094023
     57 N5          6.1110   -0.4110   -2.5860 n         1 MOL     -0.047003
     58 C19         6.2350    0.9710   -3.1630 c3        1 MOL     -0.198491
     59 C20         6.7620    2.0810   -2.2010 c         1 MOL      0.501657
     60 O10         7.2210    3.1470   -2.6640 o         1 MOL     -0.584184
     61 C21         4.8680    1.4480   -3.7660 c3        1 MOL     -0.221276
     62 C22         3.7170    1.7580   -2.8300 c         1 MOL      0.723835
     63 O11         3.8100    1.5580   -1.5670 o         1 MOL     -0.676215
     64 O12         2.6740    2.0900   -3.4360 o         1 MOL     -0.676215
     65 H26         5.1720   -0.7530   -2.4050 hn        1 MOL      0.146168
     66 H27         6.9680    0.9610   -3.9560 h1        1 MOL      0.121026
     67 H28         4.5130    0.6650   -4.4450 hc        1 MOL      0.083995
     68 H29         5.0130    2.3500   -4.3660 hc        1 MOL      0.083995
     69 N6          6.7860    1.8410   -0.9270 n         1 MOL     -0.250010
     70 C23         7.3550    2.7320    0.1020 c3        1 MOL     -0.220537
     71 C24         6.3200    3.5780    0.7930 c         1 MOL      0.442594
     72 O13         6.6660    4.3640    1.7190 o         1 MOL     -0.589775
     73 H30         6.3570    0.9880   -0.5930 hn        1 MOL      0.199213
     74 H31         8.1160    3.4470   -0.2140 h1        1 MOL      0.132258
     75 H32         7.8370    2.1130    0.8570 h1        1 MOL      0.132258
     76 N7          5.0190    3.3500    0.5320 n         1 MOL     -0.136860
     77 C25         3.9390    4.1260    1.2480 c3        1 MOL     -0.181006
     78 C26         2.6430    3.2840    1.5620 c         1 MOL      0.578066
     79 O14         2.4590    2.2860    0.9470 o         1 MOL     -0.586440
     80 C27         3.5950    5.4490    0.4270 c3        1 MOL      0.347191
     81 C28         4.4340    6.6750    0.8400 c3        1 MOL     -0.529752
     82 C29         4.1550    7.9510    0.0080 c         1 MOL      0.646901
     83 N8          4.2300    7.8760   -1.3190 n         1 MOL     -0.753521
     84 O15         3.5890    8.9480    0.4660 o         1 MOL     -0.552606
     85 H33         4.7320    2.6600   -0.1430 hn        1 MOL      0.189562
     86 H34         4.3900    4.4310    2.1960 h1        1 MOL      0.087445
     87 H35         2.5300    5.6590    0.4210 hc        1 MOL     -0.019186
     88 H36         3.8040    5.1590   -0.6030 hc        1 MOL     -0.019186
     89 H37         5.4930    6.4310    0.6990 hc        1 MOL      0.139732
     90 H38         4.3460    6.8640    1.9060 hc        1 MOL      0.139732
     91 H39         4.6360    7.0120   -1.6320 hn        1 MOL      0.355876
     92 H40         4.0400    8.5570   -2.0450 hn        1 MOL      0.355876
     93 N9          1.6640    3.6790    2.3480 n         1 MOL     -0.531083
     94 C30         0.3370    2.8950    2.5120 c3        1 MOL      0.066345
     95 C31        -0.8210    3.5630    1.6850 c         1 MOL      0.503876
     96 O16        -0.9260    4.7910    1.6250 o         1 MOL     -0.590061
     97 C32         0.0530    2.8310    4.0300 c3        1 MOL      0.091629
     98 C33        -1.4180    2.3830    4.3770 c3        1 MOL     -0.209465
     99 C34         0.8270    1.6580    4.5110 c3        1 MOL     -0.209465
    100 H41         1.8530    4.4340    2.9880 hn        1 MOL      0.265064
    101 H42         0.4750    1.8690    2.1760 h1        1 MOL      0.305135
    102 H43         0.2720    3.7470    4.5720 hc        1 MOL      0.037307
    103 H44        -1.5360    1.9460    5.3710 hc        1 MOL      0.034238
    104 H45        -2.0260    3.2840    4.2970 hc        1 MOL      0.034238
    105 H46        -1.8500    1.6250    3.7280 hc        1 MOL      0.034238
    106 H47         0.3820    0.7140    4.2020 hc        1 MOL      0.034238
    107 H48         1.8360    1.8130    4.1340 hc        1 MOL      0.034238
    108 H49         0.8900    1.6290    5.6030 hc        1 MOL      0.034238
    109 N10        -1.5760    2.7070    0.9930 n         1 MOL      0.048792
    110 C35        -2.7960    3.0970    0.1700 c3        1 MOL      0.076635
    111 C36        -4.0350    2.5120    0.7460 c         1 MOL      0.377366
    112 O17        -4.0180    1.7090    1.7100 o         1 MOL     -0.418958
    113 C37        -2.4360    2.6950   -1.2550 c3        1 MOL     -0.180069
    114 C38        -2.8030    1.2770   -1.5580 c         1 MOL      0.781660
    115 N11        -1.9700    0.3750   -1.1940 n         1 MOL     -0.673343
    116 O18        -3.8630    1.0110   -2.0940 o         1 MOL     -0.641148
    117 H50        -1.4020    1.7150    1.1300 hn        1 MOL     -0.359615
    118 H51        -2.9620    4.1750    0.2960 h1        1 MOL      0.058597
    119 H52        -1.3590    2.7160   -1.3930 hc        1 MOL      0.046680
    120 H53        -3.0300    3.2930   -1.9430 hc        1 MOL      0.046680
    121 H54        -1.0980    0.6470   -0.7740 hn        1 MOL      0.368981
    122 H55        -2.1050   -0.5540   -1.5690 hn        1 MOL      0.368981
    123 N12        -5.2050    2.8760    0.2210 n         1 MOL     -0.441846
    124 C39        -6.5060    2.4780    0.7760 c3        1 MOL      0.173790
    125 C40        -6.7910    0.9970    0.7480 c         1 MOL      0.301242
    126 O19        -7.4270    0.5040    1.6830 o         1 MOL     -0.560744
    127 C41        -7.6750    3.1980    0.2290 c3        1 MOL     -0.086869
    128 C42        -8.3060    2.7590   -1.1140 ca        1 MOL     -0.042377
    129 C43        -9.2880    1.7600   -1.1460 ca        1 MOL     -0.099854
    130 C44        -7.7920    3.2770   -2.3460 ca        1 MOL     -0.099854
    131 C45        -9.8010    1.2870   -2.3350 ca        1 MOL     -0.354646
    132 C46        -8.3690    2.8050   -3.5270 ca        1 MOL     -0.354646
    133 C47        -9.2730    1.6900   -3.5460 ca        1 MOL      0.442786
    134 O20        -9.8010    1.1630   -4.6880 oh        1 MOL     -0.502255
    135 H56        -5.1990    3.5940   -0.4860 hn        1 MOL      0.312865
    136 H57        -6.5640    2.7860    1.8180 h1        1 MOL      0.075393
    137 H58        -7.3880    4.2460    0.1350 hc        1 MOL      0.019019
    138 H59        -8.4680    3.1180    0.9790 hc        1 MOL      0.019019
    139 H60        -9.7640    1.4640   -0.2170 ha        1 MOL      0.132714
    140 H61        -7.0600    4.0730   -2.3720 ha        1 MOL      0.132714
    141 H62       -10.5380    0.4950   -2.3500 ha        1 MOL      0.170634
    142 H63        -8.1230    3.2540   -4.4810 ha        1 MOL      0.170634
    143 H64       -10.3100    0.3650   -4.5250 ho        1 MOL      0.366068
    144 N13        -6.1910    0.2670   -0.1580 n         1 MOL      0.029302
    145 C48        -6.2400   -1.1680   -0.2580 c3        1 MOL      0.027408
    146 C49        -5.3060   -1.9360    0.7190 c         1 MOL      0.272361
    147 O21        -5.5770   -3.0950    0.9640 o         1 MOL     -0.509854
    148 C50        -5.9460   -1.6010   -1.7210 c3        1 MOL     -0.215670
    149 C51        -6.6790   -0.8770   -2.8530 c3        1 MOL     -0.075522
    150 C52        -6.3960   -1.4340   -4.2520 c         1 MOL      0.686312
    151 O22        -7.3320   -1.9900   -4.8760 o         1 MOL     -0.734689
    152 O23        -5.2990   -1.1910   -4.7950 o         1 MOL     -0.734689
    153 H65        -5.6270    0.7080   -0.8660 hn        1 MOL      0.118609
    154 H66        -7.2510   -1.5200   -0.0710 h1        1 MOL      0.066840
    155 H67        -6.1290   -2.6740   -1.8200 hc        1 MOL      0.087844
    156 H68        -4.8890   -1.4730   -1.9470 hc        1 MOL      0.087844
    157 H69        -6.3830    0.1710   -2.8230 hc        1 MOL      0.017533
    158 H70        -7.7370   -0.9440   -2.6170 hc        1 MOL      0.017533
    159 N14        -4.4020   -1.2680    1.3850 n         1 MOL     -0.146341
    160 C53        -3.7280   -1.7500    2.5950 c3        1 MOL     -0.105634
    161 C54        -4.3790   -1.2220    3.8430 c         1 MOL      0.549264
    162 O24        -4.2400   -1.8070    4.9070 o         1 MOL     -0.578092
    163 C55        -2.2670   -1.3140    2.4860 c3        1 MOL     -0.005212
    164 C56        -1.4640   -2.0200    1.4020 c3        1 MOL     -0.361800
    165 C57        -0.2120   -1.3190    0.8650 c         1 MOL      0.470878
    166 O25         0.6030   -1.9750    0.1850 o         1 MOL     -0.583219
    167 O26         0.0130   -0.0980    1.0820 o         1 MOL     -0.583219
    168 H71        -4.1490   -0.3280    1.0930 hn        1 MOL      0.095805
    169 H72        -3.7380   -2.8300    2.6280 h1        1 MOL      0.113713
    170 H73        -1.7840   -1.3890    3.4590 hc        1 MOL      0.104179
    171 H74        -2.1860   -0.2530    2.2350 hc        1 MOL      0.104179
    172 H75        -2.0900   -2.2110    0.5290 hc        1 MOL      0.173699
    173 H76        -1.2610   -2.9510    1.9230 hc        1 MOL      0.173699
    174 N15        -5.1910   -0.1580    3.6450 n         1 MOL     -0.155638
    175 C58        -5.7290    0.5100    4.7730 c3        1 MOL     -0.188921
    176 H77        -4.9760    1.1750    5.1950 h1        1 MOL      0.067572
    177 H78        -6.5990    1.0930    4.4700 h1        1 MOL      0.067572
    178 H79        -6.0260   -0.2230    5.5230 h1        1 MOL      0.067572
    179 H80        -5.2550    0.2730    2.7280 hn        1 MOL      0.179804
    180 Ca1         2.5820   -0.1610    0.0220 Ca        1 MOL      1.654177
    181 O27         2.8910    0.0620    2.8060 oh        1 MOL     -0.815171
    182 H81         2.4950   -0.1910    3.6350 ho        1 MOL      0.388456
    183 H82         3.7950    0.2930    3.0260 ho        1 MOL      0.388456
    184 O28         5.0760    0.2210    0.7120 oh        1 MOL     -0.815171
    185 H83         5.3330   -0.6970    0.7680 ho        1 MOL      0.388456
    186 H84         5.4750    0.6330    1.4890 ho        1 MOL      0.388456
    187 O29         0.8210    0.9520   -1.7340 oh        1 MOL     -0.815171
    188 H85         1.2140    1.6150   -2.2990 ho        1 MOL      0.388456
    189 H86         0.6860    0.1960   -2.3120 ho        1 MOL      0.388456
@<TRIPOS>BOND
     1    1    2 1   
     2    1    4 1   
     3    1    5 1   
     4    1    6 1   
     5    2    3 2   
     6    2    7 1   
     7    7    8 1   
     8    7   15 1   
     9    8    9 1   
    10    8   11 1   
    11    8   16 1   
    12    9   10 2   
    13    9   19 1   
    14   11   12 1   
    15   11   17 1   
    16   11   18 1   
    17   12   13 1   
    18   12   14 1   
    19   19   20 1   
    20   19   27 1   
    21   20   21 1   
    22   20   23 1   
    23   20   28 1   
    24   21   22 2   
    25   21   38 1   
    26   23   24 1   
    27   23   25 1   
    28   23   29 1   
    29   24   26 1   
    30   24   30 1   
    31   24   31 1   
    32   25   32 1   
    33   25   33 1   
    34   25   34 1   
    35   26   35 1   
    36   26   36 1   
    37   26   37 1   
    38   38   39 1   
    39   38   46 1   
    40   39   40 1   
    41   39   42 1   
    42   39   47 1   
    43   40   41 2   
    44   40   50 1   
    45   42   43 1   
    46   42   48 1   
    47   42   49 1   
    48   43   44 1   
    49   43   45 1   
    50   50   51 1   
    51   50   54 1   
    52   51   52 1   
    53   51   55 1   
    54   51   56 1   
    55   52   53 2   
    56   52   57 1   
    57   57   58 1   
    58   57   65 1   
    59   58   59 1   
    60   58   61 1   
    61   58   66 1   
    62   59   60 2   
    63   59   69 1   
    64   61   62 1   
    65   61   67 1   
    66   61   68 1   
    67   62   63 1   
    68   62   64 1   
    69   69   70 1   
    70   69   73 1   
    71   70   71 1   
    72   70   74 1   
    73   70   75 1   
    74   71   72 2   
    75   71   76 1   
    76   76   77 1   
    77   76   85 1   
    78   77   78 1   
    79   77   80 1   
    80   77   86 1   
    81   78   79 2   
    82   78   93 1   
    83   80   81 1   
    84   80   87 1   
    85   80   88 1   
    86   81   82 1   
    87   81   89 1   
    88   81   90 1   
    89   82   83 1   
    90   82   84 2   
    91   83   91 1   
    92   83   92 1   
    93   93   94 1   
    94   93  100 1   
    95   94   95 1   
    96   94   97 1   
    97   94  101 1   
    98   95   96 2   
    99   95  109 1   
   100   97   98 1   
   101   97   99 1   
   102   97  102 1   
   103   98  103 1   
   104   98  104 1   
   105   98  105 1   
   106   99  106 1   
   107   99  107 1   
   108   99  108 1   
   109  109  110 1   
   110  109  117 1   
   111  110  111 1   
   112  110  113 1   
   113  110  118 1   
   114  111  112 2   
   115  111  123 1   
   116  113  114 1   
   117  113  119 1   
   118  113  120 1   
   119  114  115 1   
   120  114  116 2   
   121  115  121 1   
   122  115  122 1   
   123  123  124 1   
   124  123  135 1   
   125  124  125 1   
   126  124  127 1   
   127  124  136 1   
   128  125  126 2   
   129  125  144 1   
   130  127  128 1   
   131  127  137 1   
   132  127  138 1   
   133  128  129 ar  
   134  128  130 ar  
   135  129  131 ar  
   136  129  139 1   
   137  130  132 ar  
   138  130  140 1   
   139  131  133 ar  
   140  131  141 1   
   141  132  133 ar  
   142  132  142 1   
   143  133  134 1   
   144  134  143 1   
   145  144  145 1   
   146  144  153 1   
   147  145  146 1   
   148  145  148 1   
   149  145  154 1   
   150  146  147 2   
   151  146  159 1   
   152  148  149 1   
   153  148  155 1   
   154  148  156 1   
   155  149  150 1   
   156  149  157 1   
   157  149  158 1   
   158  150  151 1   
   159  150  152 1   
   160  159  160 1   
   161  159  168 1   
   162  160  161 1   
   163  160  163 1   
   164  160  169 1   
   165  161  162 2   
   166  161  174 1   
   167  163  164 1   
   168  163  170 1   
   169  163  171 1   
   170  164  165 1   
   171  164  172 1   
   172  164  173 1   
   173  165  166 1   
   174  165  167 1   
   175  174  175 1   
   176  174  179 1   
   177  175  176 1   
   178  175  177 1   
   179  175  178 1   
   180  181  182 1   
   181  181  183 1   
   182  184  185 1   
   183  184  186 1   
   184  187  188 1   
   185  187  189 1   
@<TRIPOS>SUBSTRUCTURE
     1 MOL         1 TEMP              0 ****  ****    0 ROOT
