@<TRIPOS>MOLECULE
MOL
  189   185     1     0     0
SMALL
resp


@<TRIPOS>ATOM
      1 C1         -0.6830    2.7420    5.8480 c3        1 MOL     -0.290939
      2 C2         -0.7790    2.2770    4.4020 c         1 MOL      0.743523
      3 O1          0.0480    2.7220    3.5760 o         1 MOL     -0.645658
      4 H1         -1.0460    3.7670    5.9240 hc        1 MOL      0.074491
      5 H2         -1.2900    2.0940    6.4800 hc        1 MOL      0.074491
      6 H3          0.3560    2.7000    6.1750 hc        1 MOL      0.074491
      7 N1         -1.8020    1.5240    4.0150 n         1 MOL     -0.630978
      8 C3         -2.2020    1.4610    2.6120 c3        1 MOL      0.034851
      9 C4         -2.6500    2.8510    2.1890 c         1 MOL      0.604931
     10 O2         -3.6420    3.3740    2.7970 o         1 MOL     -0.581891
     11 C5         -3.3050    0.4490    2.4870 c3        1 MOL     -0.180315
     12 C6         -3.9560    0.1440    1.1820 c         1 MOL      0.830908
     13 O3         -3.5420    0.7520    0.1610 o         1 MOL     -0.745034
     14 O4         -4.8380   -0.7030    1.1200 o         1 MOL     -0.745034
     15 H4         -2.4640    1.2020    4.7020 hn        1 MOL      0.350190
     16 H5         -1.3890    1.1020    1.9840 h1        1 MOL      0.079481
     17 H6         -4.1260    0.6630    3.1630 hc        1 MOL      0.049770
     18 H7         -2.9060   -0.4950    2.8520 hc        1 MOL      0.049770
     19 N2         -1.9200    3.4510    1.2530 n         1 MOL     -0.288023
     20 C7         -2.0900    4.8900    0.9050 c3        1 MOL     -0.024863
     21 C8         -3.2290    5.1330   -0.0900 c         1 MOL      0.368435
     22 O5         -3.6280    6.3090   -0.2590 o         1 MOL     -0.551537
     23 C9         -0.7790    5.3310    0.1950 c3        1 MOL     -0.061855
     24 C10         0.2100    5.7350    1.2520 c3        1 MOL      0.278845
     25 C11         1.4520    6.3570    0.6440 c3        1 MOL      0.043013
     26 C12         2.0760    7.1750    1.7280 c3        1 MOL     -0.056238
     27 N3          3.4250    7.7980    1.4040 n4        1 MOL     -0.267680
     28 H8         -1.2410    2.8890    0.7720 hn        1 MOL      0.218193
     29 H9         -2.3020    5.4260    1.8310 h1        1 MOL      0.091638
     30 H10        -1.0240    6.2210   -0.3800 hc        1 MOL      0.018174
     31 H11        -0.4420    4.5610   -0.5030 hc        1 MOL      0.018174
     32 H12         0.4690    4.9520    1.9630 hc        1 MOL     -0.048289
     33 H13        -0.2920    6.4980    1.8420 hc        1 MOL     -0.048289
     34 H14         1.1610    7.0600   -0.1390 hc        1 MOL     -0.010778
     35 H15         2.0650    5.5640    0.2300 hc        1 MOL     -0.010778
     36 H16         2.3230    6.4030    2.4450 hx        1 MOL      0.100421
     37 H17         1.3530    7.9500    2.0020 hx        1 MOL      0.100421
     38 H18         4.0480    7.1040    0.9980 hn        1 MOL      0.300004
     39 H19         3.3990    8.4890    0.6630 hn        1 MOL      0.300004
     40 H20         3.7970    8.1540    2.2820 hn        1 MOL      0.300004
     41 N4         -3.5560    4.0820   -0.8520 n         1 MOL     -0.185831
     42 C13        -4.5130    4.1290   -1.9910 c3        1 MOL      0.041458
     43 C14        -5.7200    3.1990   -1.6400 c         1 MOL      0.429485
     44 O6         -6.6500    3.1070   -2.4050 o         1 MOL     -0.491920
     45 C15        -3.6900    3.9270   -3.2920 c3        1 MOL     -0.183248
     46 C16        -2.9100    2.6400   -3.3550 c         1 MOL      0.792097
     47 O7         -3.2100    1.6950   -2.5610 o         1 MOL     -0.725313
     48 O8         -2.0300    2.3960   -4.2620 o         1 MOL     -0.725313
     49 H21        -3.0670    3.2190   -0.6510 hn        1 MOL      0.182530
     50 H22        -4.9050    5.1340   -2.1020 h1        1 MOL      0.086106
     51 H23        -2.9660    4.7200   -3.4840 hc        1 MOL      0.052902
     52 H24        -4.3830    3.8720   -4.1290 hc        1 MOL      0.052902
     53 N5         -5.7490    2.5540   -0.4240 n         1 MOL     -0.274449
     54 C17        -6.9610    1.8990    0.1370 c3        1 MOL     -0.091021
     55 C18        -7.4460    0.7490   -0.7500 c         1 MOL      0.407169
     56 O9         -8.6520    0.6470   -0.9320 o         1 MOL     -0.532842
     57 H25        -4.9080    2.5500    0.1330 hn        1 MOL      0.150980
     58 H26        -7.7110    2.6850    0.2190 h1        1 MOL      0.100373
     59 H27        -6.8540    1.5780    1.1740 h1        1 MOL      0.100373
     60 N6         -6.5330   -0.0380   -1.3860 n         1 MOL     -0.060523
     61 C19        -6.9050   -1.2740   -2.1220 c3        1 MOL     -0.286738
     62 C20        -7.2350   -2.4880   -1.3020 c         1 MOL      0.603279
     63 O10        -8.0100   -3.3340   -1.7530 o         1 MOL     -0.564122
     64 C21        -5.7760   -1.5710   -3.2640 c3        1 MOL     -0.118245
     65 C22        -4.3740   -1.6710   -2.7850 c         1 MOL      0.749285
     66 O11        -4.1170   -2.2380   -1.7170 o         1 MOL     -0.701165
     67 O12        -3.4270   -1.2620   -3.5210 o         1 MOL     -0.701165
     68 H28        -5.5690    0.1760   -1.1790 hn        1 MOL      0.148499
     69 H29        -7.7440   -0.9410   -2.7370 h1        1 MOL      0.158644
     70 H30        -5.6120   -0.7520   -3.9690 hc        1 MOL      0.055464
     71 H31        -6.0100   -2.4330   -3.8810 hc        1 MOL      0.055464
     72 N7         -6.7740   -2.4940   -0.0690 n         1 MOL     -0.301950
     73 C23        -6.9370   -3.6060    0.8710 c3        1 MOL     -0.064817
     74 C24        -5.5840   -4.3300    1.2980 c         1 MOL      0.484912
     75 O13        -5.5410   -5.2700    2.1090 o         1 MOL     -0.555480
     76 H32        -6.1330   -1.7670    0.2280 hn        1 MOL      0.254186
     77 H33        -7.5640   -4.3310    0.3660 h1        1 MOL      0.072497
     78 H34        -7.4240   -3.3590    1.8140 h1        1 MOL      0.072497
     79 N8         -4.4720   -3.7270    0.7460 n         1 MOL     -0.103032
     80 C25        -3.1260   -4.3310    0.9550 c3        1 MOL     -0.476054
     81 C26        -1.9560   -3.3510    0.9770 c         1 MOL      0.906655
     82 O14        -2.0090   -2.2380    0.4500 o         1 MOL     -0.677167
     83 C27        -2.8060   -5.2690   -0.2590 c3        1 MOL      0.496099
     84 C28        -3.5250   -6.6020   -0.2780 c3        1 MOL     -0.359860
     85 O15        -2.9270   -4.5750   -1.4340 oh        1 MOL     -0.634323
     86 H35        -4.6760   -3.0120    0.0680 hn        1 MOL      0.161386
     87 H36        -3.1480   -4.9910    1.8290 h1        1 MOL      0.162568
     88 H37        -1.7370   -5.4850   -0.2620 h1        1 MOL     -0.042342
     89 H38        -3.2660   -3.7020   -1.2620 ho        1 MOL      0.399283
     90 H39        -4.5670   -6.5310   -0.5970 hc        1 MOL      0.088928
     91 H40        -2.9510   -7.4120   -0.7240 hc        1 MOL      0.088928
     92 H41        -3.5900   -6.9740    0.7530 hc        1 MOL      0.088928
     93 N9         -0.8650   -3.6470    1.7350 n         1 MOL     -0.690442
     94 C29         0.3560   -2.8400    1.8050 c3        1 MOL      0.097482
     95 C30         1.4430   -3.3800    0.8180 c         1 MOL      0.429724
     96 O16         1.8710   -4.4970    1.0040 o         1 MOL     -0.552792
     97 C31         0.8720   -2.8940    3.2520 c3        1 MOL      0.123531
     98 C32         0.0510   -1.9130    4.0920 c3        1 MOL      0.012625
     99 C33         2.4030   -2.6620    3.3730 c3        1 MOL     -0.237938
    100 C34         0.1940   -2.2580    5.6160 c3        1 MOL     -0.168757
    101 H42        -0.8680   -4.4780    2.3190 hn        1 MOL      0.300777
    102 H43         0.1350   -1.8180    1.5060 h1        1 MOL      0.078755
    103 H44         0.7650   -3.9060    3.6390 hc        1 MOL      0.029989
    104 H45        -0.9780   -1.8500    3.7320 hc        1 MOL      0.021522
    105 H46         0.4320   -0.8950    4.0200 hc        1 MOL      0.021522
    106 H47         3.1160   -3.2470    2.7990 hc        1 MOL      0.045630
    107 H48         2.5040   -1.5780    3.2620 hc        1 MOL      0.045630
    108 H49         2.6180   -2.8640    4.4300 hc        1 MOL      0.045630
    109 H50        -0.0600   -3.3030    5.7970 hc        1 MOL      0.034955
    110 H51         1.1470   -1.8860    5.9840 hc        1 MOL      0.034955
    111 H52        -0.5910   -1.6820    6.0930 hc        1 MOL      0.034955
    112 N10         1.9280   -2.5580   -0.0970 n         1 MOL     -0.234984
    113 C35         3.1630   -2.7680   -0.9140 c3        1 MOL     -0.038829
    114 C36         4.4370   -2.5520   -0.1640 c         1 MOL      0.270851
    115 O17         4.4810   -2.0700    0.9780 o         1 MOL     -0.304154
    116 C37         3.2160   -1.8450   -2.1040 c3        1 MOL      0.068834
    117 C38         2.0090   -1.9280   -3.0270 c3        1 MOL     -0.252769
    118 O18         3.5800   -0.5510   -1.7930 oh        1 MOL     -0.390483
    119 H53         1.5460   -1.6320   -0.1960 hn        1 MOL      0.438867
    120 H54         3.0630   -3.7710   -1.3370 h1        1 MOL      0.114661
    121 H55         3.9420   -2.1870   -2.8400 h1        1 MOL      0.010064
    122 H56         2.9990    0.0150   -2.3090 ho        1 MOL      0.374323
    123 H57         1.2910   -1.1350   -2.7750 hc        1 MOL      0.069676
    124 H58         2.2050   -1.6800   -4.0720 hc        1 MOL      0.069676
    125 H59         1.5090   -2.8870   -2.9160 hc        1 MOL      0.069676
    126 N11         5.5320   -3.1110   -0.6300 n         1 MOL     -0.194864
    127 C39         6.9270   -2.8700   -0.0640 c3        1 MOL     -0.099858
    128 C40         7.2100   -1.3030    0.0710 c         1 MOL      0.275407
    129 O19         7.6390   -0.8080    1.1470 o         1 MOL     -0.407178
    130 C41         8.1350   -3.3630   -0.8560 c3        1 MOL      0.471943
    131 C42         9.3890   -3.6610    0.0190 c3        1 MOL     -0.323874
    132 O20         7.9070   -4.6250   -1.5350 oh        1 MOL     -0.660774
    133 H60         5.4330   -3.7620   -1.3880 hn        1 MOL      0.217145
    134 H61         6.8630   -3.3930    0.8930 h1        1 MOL      0.157542
    135 H62         8.4190   -2.6950   -1.6640 h1        1 MOL     -0.066048
    136 H63         8.7360   -4.9740   -1.8840 ho        1 MOL      0.397701
    137 H64        10.2700   -4.0290   -0.5080 hc        1 MOL      0.087248
    138 H65         9.6760   -2.6990    0.4430 hc        1 MOL      0.087248
    139 H66         9.0330   -4.2990    0.8260 hc        1 MOL      0.087248
    140 N12         6.8320   -0.4800   -0.9380 n         1 MOL     -0.265961
    141 C43         6.8780    0.9510   -0.8010 c3        1 MOL     -0.014759
    142 C44         6.0910    1.4640    0.4070 c         1 MOL      0.342770
    143 O21         6.5700    2.3070    1.2030 o         1 MOL     -0.522661
    144 C45         6.5390    1.6550   -2.1180 c3        1 MOL     -0.227539
    145 C46         7.4210    1.2460   -3.2220 c3        1 MOL      0.218928
    146 C47         7.2790    2.1580   -4.5670 c3        1 MOL     -0.139786
    147 C48         8.2720    1.6390   -5.6330 c3        1 MOL      0.028374
    148 N13         9.6820    1.8620   -5.2060 n4        1 MOL     -0.301599
    149 H67         6.6580   -0.8940   -1.8450 hn        1 MOL      0.213933
    150 H68         7.9070    1.1440   -0.5220 h1        1 MOL      0.086776
    151 H69         6.6200    2.7250   -1.9410 hc        1 MOL      0.065021
    152 H70         5.5160    1.3430   -2.3360 hc        1 MOL      0.065021
    153 H71         7.2750    0.1980   -3.4710 hc        1 MOL     -0.033231
    154 H72         8.4560    1.3200   -2.8990 hc        1 MOL     -0.033231
    155 H73         7.5870    3.1800   -4.3300 hc        1 MOL      0.076450
    156 H74         6.2430    2.0470   -4.8930 hc        1 MOL      0.076450
    157 H75         8.0580    2.1300   -6.5770 hx        1 MOL      0.093343
    158 H76         8.2030    0.5630   -5.7750 hx        1 MOL      0.093343
    159 H77         9.8030    2.8370   -4.9750 hn        1 MOL      0.273370
    160 H78         9.9680    1.3830   -4.3730 hn        1 MOL      0.273370
    161 H79        10.3340    1.5470   -5.9090 hn        1 MOL      0.273370
    162 N14         4.9050    0.9210    0.5480 n         1 MOL     -0.034424
    163 C49         3.9720    1.2710    1.6570 c3        1 MOL     -0.219924
    164 C50         4.4990    0.7460    3.0140 c         1 MOL      0.497828
    165 O22         4.2480    1.4230    3.9700 o         1 MOL     -0.546549
    166 C51         2.5270    0.7570    1.4860 c3        1 MOL      0.223227
    167 C52         1.8950    1.5360    0.3270 c3        1 MOL     -0.381841
    168 C53         0.5310    0.8810   -0.0580 c         1 MOL      0.771288
    169 O23         0.3640   -0.3270   -0.1910 o         1 MOL     -0.753314
    170 O24        -0.5090    1.5350   -0.3420 o         1 MOL     -0.753314
    171 H80         4.6300    0.1890   -0.0840 hn        1 MOL      0.061142
    172 H81         4.0170    2.3590    1.7120 h1        1 MOL      0.132620
    173 H82         1.8710    0.8700    2.3480 hc        1 MOL      0.014291
    174 H83         2.5530   -0.2800    1.1650 hc        1 MOL      0.014291
    175 H84         2.5040    1.5300   -0.5700 hc        1 MOL      0.060267
    176 H85         1.8150    2.5460    0.7250 hc        1 MOL      0.060267
    177 N15         5.3710   -0.3040    3.0240 n         1 MOL     -0.054711
    178 C54         6.0750   -0.8130    4.2220 c3        1 MOL     -0.336103
    179 H86         5.7830   -0.2240    5.0910 h1        1 MOL      0.116097
    180 H87         5.8100   -1.8580    4.3840 h1        1 MOL      0.116097
    181 H88         7.1520   -0.7290    4.0740 h1        1 MOL      0.116097
    182 H89         5.4770   -0.8460    2.1800 hn        1 MOL      0.095866
    183 Ca1        -2.0220   -0.3990   -1.4850 Ca        1 MOL      1.793862
    184 O25        -0.8190   -2.7260   -2.2320 oh        1 MOL     -0.923495
    185 H90        -0.9570   -3.6400   -1.9370 ho        1 MOL      0.426783
    186 H91        -0.4650   -2.8240   -3.1130 ho        1 MOL      0.426783
    187 O26        -0.6930    0.0580   -3.5770 oh        1 MOL     -0.923495
    188 H92        -1.2580    0.7730   -3.8970 ho        1 MOL      0.426783
    189 H93        -0.0510   -0.0610   -4.2730 ho        1 MOL      0.426783
@<TRIPOS>BOND
     1    1    2 1   
     2    1    4 1   
     3    1    5 1   
     4    1    6 1   
     5    2    3 2   
     6    2    7 1   
     7    7    8 1   
     8    7   15 1   
     9    8    9 1   
    10    8   11 1   
    11    8   16 1   
    12    9   10 2   
    13    9   19 1   
    14   11   12 1   
    15   11   17 1   
    16   11   18 1   
    17   12   13 1   
    18   12   14 1   
    19   19   20 1   
    20   19   28 1   
    21   20   21 1   
    22   20   23 1   
    23   20   29 1   
    24   21   22 2   
    25   21   41 1   
    26   23   24 1   
    27   23   30 1   
    28   23   31 1   
    29   24   25 1   
    30   24   32 1   
    31   24   33 1   
    32   25   26 1   
    33   25   34 1   
    34   25   35 1   
    35   26   27 1   
    36   26   36 1   
    37   26   37 1   
    38   27   38 1   
    39   27   39 1   
    40   27   40 1   
    41   41   42 1   
    42   41   49 1   
    43   42   43 1   
    44   42   45 1   
    45   42   50 1   
    46   43   44 2   
    47   43   53 1   
    48   45   46 1   
    49   45   51 1   
    50   45   52 1   
    51   46   47 1   
    52   46   48 1   
    53   53   54 1   
    54   53   57 1   
    55   54   55 1   
    56   54   58 1   
    57   54   59 1   
    58   55   56 2   
    59   55   60 1   
    60   60   61 1   
    61   60   68 1   
    62   61   62 1   
    63   61   64 1   
    64   61   69 1   
    65   62   63 2   
    66   62   72 1   
    67   64   65 1   
    68   64   70 1   
    69   64   71 1   
    70   65   66 1   
    71   65   67 1   
    72   72   73 1   
    73   72   76 1   
    74   73   74 1   
    75   73   77 1   
    76   73   78 1   
    77   74   75 2   
    78   74   79 1   
    79   79   80 1   
    80   79   86 1   
    81   80   81 1   
    82   80   83 1   
    83   80   87 1   
    84   81   82 2   
    85   81   93 1   
    86   83   84 1   
    87   83   85 1   
    88   83   88 1   
    89   84   90 1   
    90   84   91 1   
    91   84   92 1   
    92   85   89 1   
    93   93   94 1   
    94   93  101 1   
    95   94   95 1   
    96   94   97 1   
    97   94  102 1   
    98   95   96 2   
    99   95  112 1   
   100   97   98 1   
   101   97   99 1   
   102   97  103 1   
   103   98  100 1   
   104   98  104 1   
   105   98  105 1   
   106   99  106 1   
   107   99  107 1   
   108   99  108 1   
   109  100  109 1   
   110  100  110 1   
   111  100  111 1   
   112  112  113 1   
   113  112  119 1   
   114  113  114 1   
   115  113  116 1   
   116  113  120 1   
   117  114  115 2   
   118  114  126 1   
   119  116  117 1   
   120  116  118 1   
   121  116  121 1   
   122  117  123 1   
   123  117  124 1   
   124  117  125 1   
   125  118  122 1   
   126  126  127 1   
   127  126  133 1   
   128  127  128 1   
   129  127  130 1   
   130  127  134 1   
   131  128  129 2   
   132  128  140 1   
   133  130  131 1   
   134  130  132 1   
   135  130  135 1   
   136  131  137 1   
   137  131  138 1   
   138  131  139 1   
   139  132  136 1   
   140  140  141 1   
   141  140  149 1   
   142  141  142 1   
   143  141  144 1   
   144  141  150 1   
   145  142  143 2   
   146  142  162 1   
   147  144  145 1   
   148  144  151 1   
   149  144  152 1   
   150  145  146 1   
   151  145  153 1   
   152  145  154 1   
   153  146  147 1   
   154  146  155 1   
   155  146  156 1   
   156  147  148 1   
   157  147  157 1   
   158  147  158 1   
   159  148  159 1   
   160  148  160 1   
   161  148  161 1   
   162  162  163 1   
   163  162  171 1   
   164  163  164 1   
   165  163  166 1   
   166  163  172 1   
   167  164  165 2   
   168  164  177 1   
   169  166  167 1   
   170  166  173 1   
   171  166  174 1   
   172  167  168 1   
   173  167  175 1   
   174  167  176 1   
   175  168  169 1   
   176  168  170 1   
   177  177  178 1   
   178  177  182 1   
   179  178  179 1   
   180  178  180 1   
   181  178  181 1   
   182  184  185 1   
   183  184  186 1   
   184  187  188 1   
   185  187  189 1   
@<TRIPOS>SUBSTRUCTURE
     1 MOL         1 TEMP              0 ****  ****    0 ROOT
