@<TRIPOS>MOLECULE
MOL
  189   185     1     0     0
SMALL
resp


@<TRIPOS>ATOM
      1 C1          0.6920   -2.7280    6.2410 c3        1 MOL     -0.469370
      2 C2          1.0940   -2.6210    4.7500 c         1 MOL      0.689595
      3 O1          0.7410   -1.6720    4.0470 o         1 MOL     -0.541580
      4 H1          0.3760   -3.7480    6.4590 hc        1 MOL      0.129327
      5 H2          1.5470   -2.4720    6.8670 hc        1 MOL      0.129327
      6 H3         -0.1290   -2.0420    6.4470 hc        1 MOL      0.129327
      7 N1          1.9510   -3.5540    4.2160 n         1 MOL     -0.636708
      8 C3          2.4550   -3.5600    2.8050 c3        1 MOL      0.348953
      9 C4          2.1060   -4.8300    2.0040 c         1 MOL      0.466274
     10 O2          1.9490   -5.9170    2.5660 o         1 MOL     -0.584487
     11 C5          3.9680   -3.3240    2.8450 c3        1 MOL     -0.212306
     12 C6          4.5270   -3.0300    1.4890 c         1 MOL      0.679951
     13 O3          3.8630   -2.3390    0.6850 o         1 MOL     -0.677263
     14 O4          5.4510   -3.7860    1.0510 o         1 MOL     -0.677263
     15 H4          2.1130   -4.3510    4.8240 hn        1 MOL      0.305494
     16 H5          2.0500   -2.7450    2.1980 h1        1 MOL     -0.031208
     17 H6          4.5420   -4.0550    3.4230 hc        1 MOL      0.019714
     18 H7          4.1390   -2.4180    3.4190 hc        1 MOL      0.019714
     19 N2          1.9970   -4.7190    0.6630 n         1 MOL     -0.096351
     20 C7          2.0700   -5.7840   -0.3340 c3        1 MOL     -0.366748
     21 C8          2.9950   -5.4240   -1.5930 c         1 MOL      0.666880
     22 O5          3.3070   -6.2900   -2.3460 o         1 MOL     -0.609587
     23 C9          0.6260   -6.1390   -0.7020 c3        1 MOL      0.346786
     24 C10         0.5030   -7.5030   -1.4380 c3        1 MOL     -0.293748
     25 C11        -0.0020   -5.0710   -1.6310 c3        1 MOL     -0.192795
     26 C12        -0.8570   -8.1580   -1.6040 c3        1 MOL     -0.092177
     27 H8          1.7670   -3.7970    0.3080 hn        1 MOL      0.071283
     28 H9          2.4380   -6.6880    0.1400 h1        1 MOL      0.135994
     29 H10         0.1250   -6.1510    0.2750 hc        1 MOL     -0.017841
     30 H11         1.0920   -8.1990   -0.8420 hc        1 MOL      0.081475
     31 H12         0.8130   -7.3840   -2.4710 hc        1 MOL      0.081475
     32 H13        -0.1870   -4.2450   -0.9430 hc        1 MOL      0.059283
     33 H14         0.6360   -4.6350   -2.4030 hc        1 MOL      0.059283
     34 H15        -1.0270   -5.3260   -1.9000 hc        1 MOL      0.059283
     35 H16        -0.7700   -9.2440   -1.5940 hc        1 MOL      0.024233
     36 H17        -1.5800   -7.8600   -0.8500 hc        1 MOL      0.024233
     37 H18        -1.3200   -7.8150   -2.5260 hc        1 MOL      0.024233
     38 N3          3.5050   -4.1890   -1.7230 n         1 MOL     -0.453736
     39 C13         4.1940   -3.7860   -2.9600 c3        1 MOL      0.102767
     40 C14         5.5130   -3.0260   -2.7590 c         1 MOL      0.348539
     41 O6          6.2750   -2.8150   -3.7060 o         1 MOL     -0.574691
     42 C15         3.2100   -2.9370   -3.8180 c3        1 MOL     -0.378900
     43 C16         2.5570   -1.7680   -3.0680 c         1 MOL      0.786486
     44 O7          3.0860   -1.3470   -2.0150 o         1 MOL     -0.709268
     45 O8          1.4230   -1.3400   -3.4560 o         1 MOL     -0.709268
     46 H19         3.3890   -3.4570   -1.0370 hn        1 MOL      0.448484
     47 H20         4.5380   -4.6740   -3.5010 h1        1 MOL      0.096586
     48 H21         2.4820   -3.6650   -4.1780 hc        1 MOL      0.097063
     49 H22         3.7760   -2.5040   -4.6370 hc        1 MOL      0.097063
     50 N4          5.8840   -2.6500   -1.5500 n         1 MOL     -0.043440
     51 C17         7.1520   -2.0190   -1.2310 c3        1 MOL     -0.141461
     52 C18         7.4620   -0.5860   -1.6110 c         1 MOL      0.551288
     53 O9          8.6380   -0.1550   -1.5500 o         1 MOL     -0.633575
     54 H23         5.2190   -2.7440   -0.7950 hn        1 MOL      0.032728
     55 H24         8.0050   -2.5320   -1.6870 h1        1 MOL      0.071438
     56 H25         7.2780   -2.0980   -0.1540 h1        1 MOL      0.071438
     57 N5          6.3910    0.1910   -1.9430 n         1 MOL     -0.218791
     58 C19         6.4160    1.5340   -2.4860 c3        1 MOL     -0.064312
     59 C20         6.6410    2.5280   -1.3540 c         1 MOL      0.362357
     60 O10         6.3720    3.7130   -1.6090 o         1 MOL     -0.495624
     61 C21         5.2790    1.8200   -3.4560 c3        1 MOL     -0.151278
     62 C22         3.9550    1.7400   -2.8470 c         1 MOL      0.764726
     63 O11         3.9050    1.3940   -1.6660 o         1 MOL     -0.704642
     64 O12         2.9900    1.9860   -3.5980 o         1 MOL     -0.704642
     65 H26         5.4830   -0.1910   -1.7500 hn        1 MOL      0.201299
     66 H27         7.3030    1.6000   -3.1050 h1        1 MOL      0.088775
     67 H28         5.4410    1.1170   -4.2770 hc        1 MOL      0.052357
     68 H29         5.3330    2.8090   -3.9200 hc        1 MOL      0.052357
     69 N6          6.9450    2.0880   -0.1280 n         1 MOL     -0.197169
     70 C23         7.0280    2.9720    1.0840 c3        1 MOL     -0.210959
     71 C24         5.8920    3.9820    1.3790 c         1 MOL      0.620214
     72 O13         6.1610    4.8020    2.2520 o         1 MOL     -0.583657
     73 H30         7.2340    1.1340   -0.0260 hn        1 MOL      0.228240
     74 H31         7.9450    3.5630    1.0550 h1        1 MOL      0.089281
     75 H32         6.9950    2.3080    1.9530 h1        1 MOL      0.089281
     76 N7          4.6710    3.7740    0.7920 n         1 MOL     -0.518547
     77 C25         3.4510    4.5380    0.9830 c3        1 MOL      0.102275
     78 C26         2.2440    3.5020    1.2450 c         1 MOL      0.455109
     79 O14         2.1170    2.4770    0.6440 o         1 MOL     -0.462243
     80 C27         3.1290    5.4530   -0.1570 c3        1 MOL     -0.115296
     81 C28         4.1740    6.6150   -0.1710 c3        1 MOL     -0.217115
     82 C29         3.7780    7.7270   -1.1680 c         1 MOL      0.701713
     83 N8          4.5390    8.7940   -1.0760 n         1 MOL     -0.820382
     84 O15         2.7030    7.8090   -1.7800 o         1 MOL     -0.568486
     85 H33         4.6880    3.0130    0.1220 hn        1 MOL      0.339261
     86 H34         3.5560    5.0710    1.9320 h1        1 MOL      0.044190
     87 H35         2.0860    5.7590   -0.1480 hc        1 MOL      0.085433
     88 H36         3.2520    4.8710   -1.0710 hc        1 MOL      0.085433
     89 H37         5.1080    6.1880   -0.5550 hc        1 MOL      0.086406
     90 H38         4.2960    7.0970    0.8000 hc        1 MOL      0.086406
     91 H39         5.3320    8.8370   -0.4610 hn        1 MOL      0.350338
     92 H40         4.2320    9.6520   -1.5140 hn        1 MOL      0.350338
     93 N9          1.2650    3.9060    2.0670 n         1 MOL     -0.531205
     94 C30         0.0570    3.0690    2.3330 c3        1 MOL     -0.029543
     95 C31        -1.1190    3.4040    1.3610 c         1 MOL      0.766653
     96 O16        -1.4660    4.5740    1.2340 o         1 MOL     -0.606906
     97 C32        -0.3890    3.0440    3.7730 c3        1 MOL      0.102884
     98 C33        -1.0360    4.3160    4.3670 c3        1 MOL     -0.182320
     99 C34        -1.2950    1.9770    4.2140 c3        1 MOL     -0.182320
    100 H41         1.3740    4.8350    2.4290 hn        1 MOL      0.292743
    101 H42         0.3840    2.0400    2.1660 h1        1 MOL      0.164549
    102 H43         0.5110    2.9010    4.3840 hc        1 MOL      0.007026
    103 H44        -0.4070    5.1960    4.2170 hc        1 MOL      0.034217
    104 H45        -1.9350    4.6030    3.8200 hc        1 MOL      0.034217
    105 H46        -1.1080    4.3960    5.4500 hc        1 MOL      0.034217
    106 H47        -1.5730    1.9910    5.2760 hc        1 MOL      0.034217
    107 H48        -2.2780    1.9760    3.7540 hc        1 MOL      0.034217
    108 H49        -0.8160    1.0280    3.9920 hc        1 MOL      0.034217
    109 N10        -1.5870    2.4320    0.5760 n         1 MOL     -0.477706
    110 C35        -2.7970    2.4390   -0.2460 c3        1 MOL      0.105377
    111 C36        -4.0650    2.2240    0.5570 c         1 MOL      0.063871
    112 O17        -4.0640    1.6700    1.6690 o         1 MOL     -0.206518
    113 C37        -2.5660    1.4190   -1.4000 c3        1 MOL     -0.260569
    114 C38        -3.8460    0.9390   -2.0480 c         1 MOL      0.622723
    115 N11        -4.5120    1.6980   -2.9110 n         1 MOL     -0.722502
    116 O18        -4.2260   -0.2030   -1.7580 o         1 MOL     -0.484339
    117 H50        -0.9750    1.6330    0.5180 hn        1 MOL      0.300787
    118 H51        -2.9430    3.4230   -0.6940 h1        1 MOL      0.062922
    119 H52        -2.2330    0.5180   -0.8790 hc        1 MOL      0.151097
    120 H53        -1.8930    1.7620   -2.1820 hc        1 MOL      0.151097
    121 H54        -4.1230    2.6010   -3.1260 hn        1 MOL      0.349808
    122 H55        -5.2400    1.2520   -3.4530 hn        1 MOL      0.349808
    123 N12        -5.2810    2.5800    0.0020 n         1 MOL      0.100178
    124 C39        -6.5620    2.4180    0.5660 c3        1 MOL     -0.064545
    125 C40        -7.0640    1.0260    0.7120 c         1 MOL      0.532523
    126 O19        -7.8820    0.7910    1.5930 o         1 MOL     -0.596151
    127 C41        -7.5730    3.3350   -0.1470 c3        1 MOL     -0.191420
    128 C42        -7.6480    3.1280   -1.6010 ca        1 MOL     -0.027362
    129 C43        -8.6250    2.1750   -2.0400 ca        1 MOL     -0.077530
    130 C44        -6.9770    3.8990   -2.5110 ca        1 MOL     -0.077530
    131 C45        -9.0010    2.0200   -3.3710 ca        1 MOL     -0.413880
    132 C46        -7.2470    3.7050   -3.9190 ca        1 MOL     -0.413880
    133 C47        -8.2270    2.7440   -4.3470 ca        1 MOL      0.545375
    134 O20        -8.5450    2.7020   -5.6810 oh        1 MOL     -0.624937
    135 H56        -5.1870    3.1610   -0.8120 hn        1 MOL      0.046645
    136 H57        -6.4930    2.8710    1.5560 h1        1 MOL      0.060999
    137 H58        -7.3100    4.3690    0.0120 hc        1 MOL      0.090598
    138 H59        -8.5640    3.1310    0.2440 hc        1 MOL      0.090598
    139 H60        -9.0360    1.6120   -1.2180 ha        1 MOL      0.140646
    140 H61        -6.2460    4.5900   -2.1240 ha        1 MOL      0.140646
    141 H62        -9.6430    1.2340   -3.7470 ha        1 MOL      0.181153
    142 H63        -6.8050    4.2870   -4.7200 ha        1 MOL      0.181153
    143 H64        -9.4500    2.4680   -5.8770 ho        1 MOL      0.429801
    144 N13        -6.5250    0.1000   -0.0490 n         1 MOL     -0.171986
    145 C48        -6.8120   -1.2900    0.2170 c3        1 MOL     -0.124966
    146 C49        -5.7470   -1.9000    1.1900 c         1 MOL      0.451399
    147 O21        -5.9310   -3.0020    1.7620 o         1 MOL     -0.531138
    148 C50        -7.0040   -2.0530   -1.0720 c3        1 MOL     -0.009469
    149 C51        -7.5470   -3.4930   -0.9340 c3        1 MOL     -0.223355
    150 C52        -7.9880   -3.9800   -2.3610 c         1 MOL      0.647627
    151 O22        -7.0980   -4.4280   -3.1400 o         1 MOL     -0.730916
    152 O23        -9.2230   -3.7950   -2.6090 o         1 MOL     -0.730916
    153 H65        -5.7670    0.3250   -0.6800 hn        1 MOL      0.106333
    154 H66        -7.7590   -1.3780    0.7610 h1        1 MOL      0.136484
    155 H67        -6.1300   -2.0410   -1.7230 hc        1 MOL      0.070726
    156 H68        -7.7560   -1.4790   -1.6020 hc        1 MOL      0.070726
    157 H69        -8.3100   -3.6630   -0.1790 hc        1 MOL      0.035790
    158 H70        -6.7410   -4.1470   -0.5940 hc        1 MOL      0.035790
    159 N14        -4.6350   -1.2230    1.5000 n         1 MOL     -0.104558
    160 C53        -3.7980   -1.5240    2.6540 c3        1 MOL     -0.041317
    161 C54        -4.0890   -0.8790    4.0080 c         1 MOL      0.351473
    162 O24        -4.0150   -1.6010    5.0670 o         1 MOL     -0.535418
    163 C55        -2.3560   -1.1620    2.2350 c3        1 MOL      0.175487
    164 C56        -1.5960   -2.0110    1.1530 c3        1 MOL     -0.047654
    165 C57        -0.3190   -1.3270    0.8260 c         1 MOL      0.873722
    166 O25        -0.2190   -0.1280    0.7920 o         1 MOL     -0.818899
    167 O26         0.7050   -1.9760    0.4530 o         1 MOL     -0.818899
    168 H71        -4.5520   -0.2960    1.1070 hn        1 MOL     -0.053554
    169 H72        -3.8850   -2.6070    2.7450 h1        1 MOL      0.088687
    170 H73        -1.7040   -1.4100    3.0790 hc        1 MOL     -0.036536
    171 H74        -2.3300   -0.0930    2.0490 hc        1 MOL     -0.036536
    172 H75        -2.1690   -2.1560    0.2270 hc        1 MOL      0.002100
    173 H76        -1.3770   -2.9820    1.5950 hc        1 MOL      0.002100
    174 N15        -4.5890    0.4190    4.0170 n         1 MOL     -0.044864
    175 C58        -4.9790    1.1260    5.2210 c3        1 MOL     -0.075132
    176 H77        -6.0650    1.2150    5.2540 h1        1 MOL      0.041345
    177 H78        -4.6330    0.5740    6.0950 h1        1 MOL      0.041345
    178 H79        -4.5330    2.1210    5.2190 h1        1 MOL      0.041345
    179 H80        -4.5300    0.8650    3.1100 hn        1 MOL      0.042129
    180 Ca1         2.5110   -0.1170    0.1360 Ca        1 MOL      1.716270
    181 O27         4.6300    0.4910    1.5930 oh        1 MOL     -0.885730
    182 H81         4.2630    0.3920    2.4660 ho        1 MOL      0.413625
    183 H82         5.5300    0.7860    1.7420 ho        1 MOL      0.413625
    184 O28         2.3340   -0.2850    2.7420 oh        1 MOL     -0.885730
    185 H83         2.7830   -0.2030    3.5840 ho        1 MOL      0.413625
    186 H84         1.5450   -0.7910    2.9430 ho        1 MOL      0.413625
    187 O29         0.9360    1.2080   -1.7880 oh        1 MOL     -0.885730
    188 H85         0.8590    0.5420   -2.4780 ho        1 MOL      0.413625
    189 H86         1.7500    1.6710   -2.0020 ho        1 MOL      0.413625
@<TRIPOS>BOND
     1    1    2 1   
     2    1    4 1   
     3    1    5 1   
     4    1    6 1   
     5    2    3 2   
     6    2    7 1   
     7    7    8 1   
     8    7   15 1   
     9    8    9 1   
    10    8   11 1   
    11    8   16 1   
    12    9   10 2   
    13    9   19 1   
    14   11   12 1   
    15   11   17 1   
    16   11   18 1   
    17   12   13 1   
    18   12   14 1   
    19   19   20 1   
    20   19   27 1   
    21   20   21 1   
    22   20   23 1   
    23   20   28 1   
    24   21   22 2   
    25   21   38 1   
    26   23   24 1   
    27   23   25 1   
    28   23   29 1   
    29   24   26 1   
    30   24   30 1   
    31   24   31 1   
    32   25   32 1   
    33   25   33 1   
    34   25   34 1   
    35   26   35 1   
    36   26   36 1   
    37   26   37 1   
    38   38   39 1   
    39   38   46 1   
    40   39   40 1   
    41   39   42 1   
    42   39   47 1   
    43   40   41 2   
    44   40   50 1   
    45   42   43 1   
    46   42   48 1   
    47   42   49 1   
    48   43   44 1   
    49   43   45 1   
    50   50   51 1   
    51   50   54 1   
    52   51   52 1   
    53   51   55 1   
    54   51   56 1   
    55   52   53 2   
    56   52   57 1   
    57   57   58 1   
    58   57   65 1   
    59   58   59 1   
    60   58   61 1   
    61   58   66 1   
    62   59   60 2   
    63   59   69 1   
    64   61   62 1   
    65   61   67 1   
    66   61   68 1   
    67   62   63 1   
    68   62   64 1   
    69   69   70 1   
    70   69   73 1   
    71   70   71 1   
    72   70   74 1   
    73   70   75 1   
    74   71   72 2   
    75   71   76 1   
    76   76   77 1   
    77   76   85 1   
    78   77   78 1   
    79   77   80 1   
    80   77   86 1   
    81   78   79 2   
    82   78   93 1   
    83   80   81 1   
    84   80   87 1   
    85   80   88 1   
    86   81   82 1   
    87   81   89 1   
    88   81   90 1   
    89   82   83 1   
    90   82   84 2   
    91   83   91 1   
    92   83   92 1   
    93   93   94 1   
    94   93  100 1   
    95   94   95 1   
    96   94   97 1   
    97   94  101 1   
    98   95   96 2   
    99   95  109 1   
   100   97   98 1   
   101   97   99 1   
   102   97  102 1   
   103   98  103 1   
   104   98  104 1   
   105   98  105 1   
   106   99  106 1   
   107   99  107 1   
   108   99  108 1   
   109  109  110 1   
   110  109  117 1   
   111  110  111 1   
   112  110  113 1   
   113  110  118 1   
   114  111  112 2   
   115  111  123 1   
   116  113  114 1   
   117  113  119 1   
   118  113  120 1   
   119  114  115 1   
   120  114  116 2   
   121  115  121 1   
   122  115  122 1   
   123  123  124 1   
   124  123  135 1   
   125  124  125 1   
   126  124  127 1   
   127  124  136 1   
   128  125  126 2   
   129  125  144 1   
   130  127  128 1   
   131  127  137 1   
   132  127  138 1   
   133  128  129 ar  
   134  128  130 ar  
   135  129  131 ar  
   136  129  139 1   
   137  130  132 ar  
   138  130  140 1   
   139  131  133 ar  
   140  131  141 1   
   141  132  133 ar  
   142  132  142 1   
   143  133  134 1   
   144  134  143 1   
   145  144  145 1   
   146  144  153 1   
   147  145  146 1   
   148  145  148 1   
   149  145  154 1   
   150  146  147 2   
   151  146  159 1   
   152  148  149 1   
   153  148  155 1   
   154  148  156 1   
   155  149  150 1   
   156  149  157 1   
   157  149  158 1   
   158  150  151 1   
   159  150  152 1   
   160  159  160 1   
   161  159  168 1   
   162  160  161 1   
   163  160  163 1   
   164  160  169 1   
   165  161  162 2   
   166  161  174 1   
   167  163  164 1   
   168  163  170 1   
   169  163  171 1   
   170  164  165 1   
   171  164  172 1   
   172  164  173 1   
   173  165  166 1   
   174  165  167 1   
   175  174  175 1   
   176  174  179 1   
   177  175  176 1   
   178  175  177 1   
   179  175  178 1   
   180  181  182 1   
   181  181  183 1   
   182  184  185 1   
   183  184  186 1   
   184  187  188 1   
   185  187  189 1   
@<TRIPOS>SUBSTRUCTURE
     1 MOL         1 TEMP              0 ****  ****    0 ROOT
