@<TRIPOS>MOLECULE
MOL
  189   185     1     0     0
SMALL
resp


@<TRIPOS>ATOM
      1 C1          0.7050    1.8080    5.6620 c3        1 MOL     -0.413676
      2 C2          0.1240    1.8240    4.2080 c         1 MOL      0.822692
      3 O1          0.8030    2.2500    3.2730 o         1 MOL     -0.699676
      4 H1          1.4550    2.5920    5.7620 hc        1 MOL      0.100937
      5 H2         -0.0990    1.9820    6.3770 hc        1 MOL      0.100937
      6 H3          1.1640    0.8390    5.8600 hc        1 MOL      0.100937
      7 N1         -1.1260    1.4100    3.9760 n         1 MOL     -0.702496
      8 C3         -1.7790    1.4420    2.6450 c3        1 MOL      0.334228
      9 C4         -2.1540    2.8680    2.3040 c         1 MOL      0.416597
     10 O2         -2.9340    3.4540    3.0630 o         1 MOL     -0.576137
     11 C5         -3.0700    0.5710    2.8020 c3        1 MOL     -0.543591
     12 C6         -3.8390    0.3070    1.5030 c         1 MOL      0.912009
     13 O3         -3.2870    0.6880    0.4250 o         1 MOL     -0.632703
     14 O4         -4.9090   -0.2690    1.5930 o         1 MOL     -0.632703
     15 H4         -1.6350    1.0570    4.7750 hn        1 MOL      0.358325
     16 H5         -1.1630    1.1050    1.8030 h1        1 MOL      0.004471
     17 H6         -3.7350    1.0490    3.5110 hc        1 MOL      0.117527
     18 H7         -2.7910   -0.3620    3.2870 hc        1 MOL      0.117527
     19 N2         -1.6730    3.4120    1.2140 n         1 MOL     -0.142194
     20 C7         -1.7580    4.8180    0.8740 c3        1 MOL      0.068281
     21 C8         -2.8220    5.0950   -0.1220 c         1 MOL      0.485118
     22 O5         -3.3030    6.2450   -0.1900 o         1 MOL     -0.595911
     23 C9         -0.4460    5.4880    0.4840 c3        1 MOL     -0.207259
     24 C10         0.4600    5.6130    1.7310 c3        1 MOL      0.126605
     25 C11         0.3920    6.8560    2.5920 c3        1 MOL     -0.274000
     26 C12         1.6600    6.9320    3.5050 c3        1 MOL      0.054065
     27 N3          1.4520    6.3940    4.8630 n4        1 MOL     -0.259073
     28 H8         -1.0370    2.8890    0.6280 hn        1 MOL      0.252951
     29 H9         -2.2510    5.3470    1.7010 h1        1 MOL      0.035309
     30 H10        -0.6250    6.4880    0.0790 hc        1 MOL      0.069569
     31 H11        -0.0140    4.8360   -0.2760 hc        1 MOL      0.069569
     32 H12         1.4620    5.5470    1.3160 hc        1 MOL      0.029123
     33 H13         0.2290    4.7560    2.3740 hc        1 MOL      0.029123
     34 H14        -0.5660    6.9560    3.1060 hc        1 MOL      0.107487
     35 H15         0.4630    7.6320    1.8320 hc        1 MOL      0.107487
     36 H16         1.8870    7.9920    3.6210 hx        1 MOL      0.072783
     37 H17         2.5120    6.4520    3.0070 hx        1 MOL      0.072783
     38 H18         1.4810    5.3890    4.9590 hn        1 MOL      0.302629
     39 H19         2.2310    6.6930    5.4260 hn        1 MOL      0.302629
     40 H20         0.6280    6.7540    5.3360 hn        1 MOL      0.302629
     41 N4         -3.2420    4.0980   -0.9190 n         1 MOL     -0.251329
     42 C13        -4.1620    4.2940   -2.0100 c3        1 MOL     -0.042336
     43 C14        -5.5520    3.5360   -1.8660 c         1 MOL      0.433961
     44 O6         -6.4690    3.7110   -2.6580 o         1 MOL     -0.492085
     45 C15        -3.4990    3.9720   -3.3660 c3        1 MOL     -0.213582
     46 C16        -2.6980    2.6950   -3.3620 c         1 MOL      0.892156
     47 O7         -2.0420    2.4350   -4.4040 o         1 MOL     -0.754496
     48 O8         -2.5290    1.9510   -2.3410 o         1 MOL     -0.754496
     49 H21        -2.8110    3.2050   -0.7680 hn        1 MOL      0.121489
     50 H22        -4.4950    5.3340   -2.0760 h1        1 MOL      0.109404
     51 H23        -2.8540    4.8190   -3.5910 hc        1 MOL      0.061819
     52 H24        -4.2630    3.8480   -4.1280 hc        1 MOL      0.061819
     53 N5         -5.7430    2.7660   -0.7590 n         1 MOL     -0.174372
     54 C17        -7.1670    2.3470   -0.3710 c3        1 MOL     -0.243551
     55 C18        -7.5730    1.0240   -1.0340 c         1 MOL      0.591753
     56 O9         -8.5960    0.9940   -1.7050 o         1 MOL     -0.551642
     57 H25        -4.9660    2.5050   -0.1660 hn        1 MOL      0.144695
     58 H26        -7.7890    3.2000   -0.6310 h1        1 MOL      0.113826
     59 H27        -7.1400    2.2290    0.7110 h1        1 MOL      0.113826
     60 N6         -6.7830   -0.0660   -0.9200 n         1 MOL     -0.229704
     61 C19        -7.1760   -1.3830   -1.5310 c3        1 MOL     -0.022683
     62 C20        -7.1690   -2.5630   -0.5190 c         1 MOL      0.380777
     63 O10        -7.7300   -3.6450   -0.7770 o         1 MOL     -0.522821
     64 C21        -6.1560   -1.7280   -2.6570 c3        1 MOL     -0.029959
     65 C22        -4.7030   -1.4230   -2.3690 c         1 MOL      0.586132
     66 O11        -4.1760   -1.9520   -1.3700 o         1 MOL     -0.665314
     67 O12        -3.9810   -0.7360   -3.1750 o         1 MOL     -0.665314
     68 H28        -5.9100   -0.0770   -0.4000 hn        1 MOL      0.052936
     69 H29        -8.1950   -1.2610   -1.9140 h1        1 MOL      0.100984
     70 H30        -6.3810   -1.1700   -3.5570 hc        1 MOL      0.030645
     71 H31        -6.2850   -2.7720   -2.9550 hc        1 MOL      0.030645
     72 N7         -6.6370   -2.3350    0.6920 n         1 MOL     -0.212631
     73 C23        -6.5810   -3.3560    1.7580 c3        1 MOL     -0.205548
     74 C24        -5.4380   -4.3650    1.6450 c         1 MOL      0.537084
     75 O13        -5.4310   -5.3660    2.3090 o         1 MOL     -0.563818
     76 H32        -6.0830   -1.4910    0.7650 hn        1 MOL      0.180761
     77 H33        -7.5420   -3.8570    1.7600 h1        1 MOL      0.119232
     78 H34        -6.5180   -2.7750    2.6720 h1        1 MOL      0.119232
     79 N8         -4.4220   -4.0430    0.8030 n         1 MOL     -0.137825
     80 C25        -3.0750   -4.7230    0.6080 c3        1 MOL     -0.165669
     81 C26        -1.8790   -3.7520    0.8700 c         1 MOL      0.556513
     82 O14        -1.9990   -2.5890    0.4350 o         1 MOL     -0.670380
     83 C27        -3.0030   -5.4250   -0.7350 c3        1 MOL      0.487222
     84 C28        -4.0580   -6.5480   -0.8690 c3        1 MOL     -0.426851
     85 O15        -3.1530   -4.5290   -1.8640 oh        1 MOL     -0.659083
     86 H35        -4.5340   -3.2290    0.2270 hn        1 MOL      0.116673
     87 H36        -2.9510   -5.5050    1.3600 h1        1 MOL      0.072547
     88 H37        -2.1070   -6.0550   -0.7490 h1        1 MOL     -0.016887
     89 H38        -3.6560   -3.7590   -1.5770 ho        1 MOL      0.463368
     90 H39        -3.9630   -7.2140   -0.0100 hc        1 MOL      0.105416
     91 H40        -5.0520   -6.1010   -0.9440 hc        1 MOL      0.105416
     92 H41        -3.6860   -7.0500   -1.7630 hc        1 MOL      0.105416
     93 N9         -0.7200   -4.2140    1.2720 n         1 MOL     -0.588991
     94 C29         0.4880   -3.3770    1.4410 c3        1 MOL      0.043917
     95 C30         1.6300   -3.8150    0.4970 c         1 MOL      0.546162
     96 O16         1.8750   -5.0230    0.4770 o         1 MOL     -0.582539
     97 C31         0.8190   -3.2050    2.9930 c3        1 MOL      0.213685
     98 C32        -0.4110   -3.0250    3.8740 c3        1 MOL      0.172317
     99 C33         1.8220   -2.0310    3.1350 c3        1 MOL     -0.916946
    100 C34        -0.2490   -3.2180    5.4030 c3        1 MOL     -0.282674
    101 H42        -0.6390   -5.1770    1.5760 hn        1 MOL      0.315843
    102 H43         0.3210   -2.3860    1.0380 h1        1 MOL      0.126624
    103 H44         1.3380   -4.0940    3.3300 hc        1 MOL     -0.009636
    104 H45        -1.1830   -3.7520    3.6510 hc        1 MOL      0.004162
    105 H46        -0.8290   -2.0340    3.6680 hc        1 MOL      0.004162
    106 H47         1.4260   -1.0530    2.8500 hc        1 MOL      0.217428
    107 H48         1.9840   -1.9650    4.2050 hc        1 MOL      0.217428
    108 H49         2.6790   -2.2960    2.5230 hc        1 MOL      0.217428
    109 H50        -0.3080   -4.2670    5.7150 hc        1 MOL      0.063568
    110 H51         0.6560   -2.7230    5.7530 hc        1 MOL      0.063568
    111 H52        -1.1610   -2.8390    5.8530 hc        1 MOL      0.063568
    112 N10         2.2470   -2.8540   -0.1520 n         1 MOL     -0.196940
    113 C35         3.3680   -3.1140   -1.0700 c3        1 MOL     -0.020134
    114 C36         4.7450   -2.9090   -0.3190 c         1 MOL      0.358669
    115 O17         4.7310   -2.3220    0.7020 o         1 MOL     -0.317520
    116 C37         3.3280   -2.1910   -2.2500 c3        1 MOL      0.044810
    117 C38         2.1650   -2.1690   -3.2270 c3        1 MOL     -0.499199
    118 O18         3.6710   -0.8850   -1.9670 oh        1 MOL     -0.221169
    119 H53         1.8670   -1.9150   -0.1320 hn        1 MOL      0.211225
    120 H54         3.2400   -4.1260   -1.4410 h1        1 MOL      0.093783
    121 H55         4.1260   -2.5430   -2.9060 h1        1 MOL      0.000628
    122 H56         3.3850   -0.3330   -2.7000 ho        1 MOL      0.323229
    123 H57         1.7340   -3.1700   -3.3620 hc        1 MOL      0.142000
    124 H58         1.3310   -1.5860   -2.8460 hc        1 MOL      0.142000
    125 H59         2.4090   -1.6510   -4.1560 hc        1 MOL      0.142000
    126 N11         5.8650   -3.2230   -1.0010 n         1 MOL     -0.223578
    127 C39         7.1570   -2.9810   -0.3760 c3        1 MOL      0.043771
    128 C40         7.6180   -1.5360   -0.2630 c         1 MOL      0.284639
    129 O19         8.3200   -1.0520    0.6350 o         1 MOL     -0.449432
    130 C41         8.2760   -3.6800   -1.2010 c3        1 MOL      0.353942
    131 C42         9.5920   -3.9250   -0.4300 c3        1 MOL     -0.381260
    132 O20         7.9000   -4.8990   -1.7300 oh        1 MOL     -0.648753
    133 H60         5.8770   -3.9040   -1.7520 hn        1 MOL      0.236620
    134 H61         7.1790   -3.3550    0.6460 h1        1 MOL      0.090345
    135 H62         8.4210   -3.0850   -2.1010 h1        1 MOL     -0.034386
    136 H63         8.6570   -5.1670   -2.2480 ho        1 MOL      0.418300
    137 H64         9.7590   -2.9960    0.1270 hc        1 MOL      0.103792
    138 H65         9.5710   -4.6630    0.3670 hc        1 MOL      0.103792
    139 H66        10.4450   -4.1630   -1.0550 hc        1 MOL      0.103792
    140 N12         7.1380   -0.7280   -1.2360 n         1 MOL     -0.218224
    141 C43         7.2040    0.7550   -1.3740 c3        1 MOL     -0.120588
    142 C44         6.4460    1.2980   -0.2040 c         1 MOL      0.496488
    143 O21         6.9610    2.1950    0.3810 o         1 MOL     -0.526875
    144 C45         6.6950    1.1460   -2.7770 c3        1 MOL     -0.106009
    145 C46         6.3310    2.6760   -2.9340 c3        1 MOL     -0.128236
    146 C47         6.0770    2.9990   -4.4410 c3        1 MOL     -0.123171
    147 C48         5.7510    4.4770   -4.5790 c3        1 MOL      0.124046
    148 N13         5.8870    4.8330   -5.9630 n4        1 MOL     -0.373203
    149 H67         6.5350   -1.1950   -1.9000 hn        1 MOL      0.153894
    150 H68         8.2510    0.9600   -1.1590 h1        1 MOL      0.144737
    151 H69         5.7820    0.5830   -2.9630 hc        1 MOL      0.049558
    152 H70         7.4320    0.9660   -3.5680 hc        1 MOL      0.049558
    153 H71         7.1080    3.3050   -2.4990 hc        1 MOL      0.078431
    154 H72         5.4900    2.9550   -2.2980 hc        1 MOL      0.078431
    155 H73         5.2750    2.5480   -5.0340 hc        1 MOL      0.076265
    156 H74         6.9780    2.6960   -4.9630 hc        1 MOL      0.076265
    157 H75         6.4480    5.0640   -3.9760 hx        1 MOL      0.066299
    158 H76         4.7400    4.6960   -4.2180 hx        1 MOL      0.066299
    159 H77         5.3460    4.2390   -6.5640 hn        1 MOL      0.317972
    160 H78         5.5210    5.7730   -5.9700 hn        1 MOL      0.317972
    161 H79         6.8650    4.9630   -6.2000 hn        1 MOL      0.317972
    162 N14         5.2590    0.7400    0.1670 n         1 MOL      0.077894
    163 C49         4.2970    1.2880    1.1850 c3        1 MOL     -0.193762
    164 C50         4.9000    1.1120    2.5800 c         1 MOL      0.422171
    165 O22         4.7480    2.0160    3.4660 o         1 MOL     -0.551280
    166 C51         2.9230    0.6330    1.1200 c3        1 MOL      0.021745
    167 C52         2.0870    1.3830    0.0300 c3        1 MOL      0.075545
    168 C53         0.7140    0.7190   -0.1910 c         1 MOL      0.454671
    169 O23        -0.2980    1.4550   -0.3800 o         1 MOL     -0.637900
    170 O24         0.5850   -0.5220   -0.4770 o         1 MOL     -0.637900
    171 H80         4.9740   -0.1310   -0.2770 hn        1 MOL     -0.136550
    172 H81         4.2480    2.3780    1.1070 h1        1 MOL      0.074231
    173 H82         2.3840    0.7090    2.0700 hc        1 MOL      0.086069
    174 H83         3.1400   -0.3840    0.8100 hc        1 MOL      0.086069
    175 H84         2.7360    1.3880   -0.8370 hc        1 MOL     -0.049233
    176 H85         1.9030    2.4330    0.2350 hc        1 MOL     -0.049233
    177 N15         5.4950   -0.0560    2.8500 n         1 MOL     -0.059681
    178 C54         6.2550   -0.3080    3.9960 c3        1 MOL     -0.557543
    179 H86         7.1510    0.3130    3.9810 h1        1 MOL      0.177689
    180 H87         5.6660   -0.0730    4.8820 h1        1 MOL      0.177689
    181 H88         6.5440   -1.3590    4.0180 h1        1 MOL      0.177689
    182 H89         5.4280   -0.7450    2.1100 hn        1 MOL      0.187147
    183 Ca1        -1.9340   -0.4550   -1.3840 Ca        1 MOL      1.659681
    184 O25        -0.7530    0.0760   -3.7590 oh        1 MOL     -0.775069
    185 H90        -0.0070    0.1030   -4.3610 ho        1 MOL      0.378684
    186 H91        -1.2410    0.8860   -3.9460 ho        1 MOL      0.378684
    187 O26        -1.1350   -2.8130   -2.5760 oh        1 MOL     -0.775069
    188 H92        -1.1770   -3.5660   -1.9860 ho        1 MOL      0.378684
    189 H93        -1.1450   -3.2000   -3.4550 ho        1 MOL      0.378684
@<TRIPOS>BOND
     1    1    2 1   
     2    1    4 1   
     3    1    5 1   
     4    1    6 1   
     5    2    3 2   
     6    2    7 1   
     7    7    8 1   
     8    7   15 1   
     9    8    9 1   
    10    8   11 1   
    11    8   16 1   
    12    9   10 2   
    13    9   19 1   
    14   11   12 1   
    15   11   17 1   
    16   11   18 1   
    17   12   13 1   
    18   12   14 1   
    19   19   20 1   
    20   19   28 1   
    21   20   21 1   
    22   20   23 1   
    23   20   29 1   
    24   21   22 2   
    25   21   41 1   
    26   23   24 1   
    27   23   30 1   
    28   23   31 1   
    29   24   25 1   
    30   24   32 1   
    31   24   33 1   
    32   25   26 1   
    33   25   34 1   
    34   25   35 1   
    35   26   27 1   
    36   26   36 1   
    37   26   37 1   
    38   27   38 1   
    39   27   39 1   
    40   27   40 1   
    41   41   42 1   
    42   41   49 1   
    43   42   43 1   
    44   42   45 1   
    45   42   50 1   
    46   43   44 2   
    47   43   53 1   
    48   45   46 1   
    49   45   51 1   
    50   45   52 1   
    51   46   47 1   
    52   46   48 1   
    53   53   54 1   
    54   53   57 1   
    55   54   55 1   
    56   54   58 1   
    57   54   59 1   
    58   55   56 2   
    59   55   60 1   
    60   60   61 1   
    61   60   68 1   
    62   61   62 1   
    63   61   64 1   
    64   61   69 1   
    65   62   63 2   
    66   62   72 1   
    67   64   65 1   
    68   64   70 1   
    69   64   71 1   
    70   65   66 1   
    71   65   67 1   
    72   72   73 1   
    73   72   76 1   
    74   73   74 1   
    75   73   77 1   
    76   73   78 1   
    77   74   75 2   
    78   74   79 1   
    79   79   80 1   
    80   79   86 1   
    81   80   81 1   
    82   80   83 1   
    83   80   87 1   
    84   81   82 2   
    85   81   93 1   
    86   83   84 1   
    87   83   85 1   
    88   83   88 1   
    89   84   90 1   
    90   84   91 1   
    91   84   92 1   
    92   85   89 1   
    93   93   94 1   
    94   93  101 1   
    95   94   95 1   
    96   94   97 1   
    97   94  102 1   
    98   95   96 2   
    99   95  112 1   
   100   97   98 1   
   101   97   99 1   
   102   97  103 1   
   103   98  100 1   
   104   98  104 1   
   105   98  105 1   
   106   99  106 1   
   107   99  107 1   
   108   99  108 1   
   109  100  109 1   
   110  100  110 1   
   111  100  111 1   
   112  112  113 1   
   113  112  119 1   
   114  113  114 1   
   115  113  116 1   
   116  113  120 1   
   117  114  115 2   
   118  114  126 1   
   119  116  117 1   
   120  116  118 1   
   121  116  121 1   
   122  117  123 1   
   123  117  124 1   
   124  117  125 1   
   125  118  122 1   
   126  126  127 1   
   127  126  133 1   
   128  127  128 1   
   129  127  130 1   
   130  127  134 1   
   131  128  129 2   
   132  128  140 1   
   133  130  131 1   
   134  130  132 1   
   135  130  135 1   
   136  131  137 1   
   137  131  138 1   
   138  131  139 1   
   139  132  136 1   
   140  140  141 1   
   141  140  149 1   
   142  141  142 1   
   143  141  144 1   
   144  141  150 1   
   145  142  143 2   
   146  142  162 1   
   147  144  145 1   
   148  144  151 1   
   149  144  152 1   
   150  145  146 1   
   151  145  153 1   
   152  145  154 1   
   153  146  147 1   
   154  146  155 1   
   155  146  156 1   
   156  147  148 1   
   157  147  157 1   
   158  147  158 1   
   159  148  159 1   
   160  148  160 1   
   161  148  161 1   
   162  162  163 1   
   163  162  171 1   
   164  163  164 1   
   165  163  166 1   
   166  163  172 1   
   167  164  165 2   
   168  164  177 1   
   169  166  167 1   
   170  166  173 1   
   171  166  174 1   
   172  167  168 1   
   173  167  175 1   
   174  167  176 1   
   175  168  169 1   
   176  168  170 1   
   177  177  178 1   
   178  177  182 1   
   179  178  179 1   
   180  178  180 1   
   181  178  181 1   
   182  184  185 1   
   183  184  186 1   
   184  187  188 1   
   185  187  189 1   
@<TRIPOS>SUBSTRUCTURE
     1 MOL         1 TEMP              0 ****  ****    0 ROOT
