@<TRIPOS>MOLECULE
MOL
  179   176     1     0     0
SMALL
resp


@<TRIPOS>ATOM
      1 C1          1.3310    2.7740    6.6520 c3        1 MOL     -0.363605
      2 C2          1.1130    2.2740    5.1490 c         1 MOL      0.737576
      3 O1          2.0400    1.9140    4.4060 o         1 MOL     -0.590028
      4 H1          2.1320    3.5130    6.6760 hc        1 MOL      0.098177
      5 H2          0.4100    3.2240    7.0230 hc        1 MOL      0.098177
      6 H3          1.6020    1.9260    7.2820 hc        1 MOL      0.098177
      7 N1         -0.1990    2.2020    4.7120 n         1 MOL     -0.607463
      8 C3         -0.6130    1.9730    3.2860 c3        1 MOL     -0.044761
      9 C4         -0.6010    3.3240    2.5420 c         1 MOL      0.538892
     10 O2         -1.2460    4.2960    2.9120 o         1 MOL     -0.496914
     11 C5         -1.9980    1.3310    3.3500 c3        1 MOL      0.006044
     12 C6         -2.8200    1.2000    2.0900 c         1 MOL      0.672650
     13 O3         -2.1560    1.1870    1.0400 o         1 MOL     -0.724803
     14 O4         -4.0490    0.9810    2.1380 o         1 MOL     -0.724803
     15 H4         -0.9480    2.6090    5.2510 hn        1 MOL      0.323637
     16 H5          0.0630    1.2650    2.8080 h1        1 MOL      0.128563
     17 H6         -2.5560    1.9950    4.0100 hc        1 MOL      0.008911
     18 H7         -1.9400    0.3810    3.8900 hc        1 MOL      0.008911
     19 N2          0.1680    3.3940    1.3860 n         1 MOL     -0.177224
     20 C7          0.5480    4.6470    0.7920 c3        1 MOL     -0.130464
     21 C8         -0.6840    5.1830    0.0670 c         1 MOL      0.422447
     22 O5         -0.9430    6.3730    0.1930 o         1 MOL     -0.548328
     23 C9          1.6410    4.4040   -0.2820 c3        1 MOL      0.019271
     24 C10         2.0070    5.7000   -1.0160 c3        1 MOL     -0.355015
     25 C11         3.0640    5.4550   -2.0160 c3        1 MOL      0.142302
     26 C12         3.3740    6.8000   -2.7740 c3        1 MOL      0.027097
     27 N3          4.5260    6.6130   -3.6740 n4        1 MOL     -0.350803
     28 H8          0.8040    2.6260    1.1890 hn        1 MOL      0.084671
     29 H9          0.8800    5.4630    1.4380 h1        1 MOL      0.118153
     30 H10         1.3960    3.6020   -0.9660 hc        1 MOL      0.084242
     31 H11         2.5630    4.0420    0.1590 hc        1 MOL      0.084242
     32 H12         2.3300    6.4210   -0.2650 hc        1 MOL      0.114393
     33 H13         1.1500    6.1340   -1.5090 hc        1 MOL      0.114393
     34 H14         2.7120    4.7260   -2.7530 hc        1 MOL      0.007869
     35 H15         3.9350    4.9650   -1.5730 hc        1 MOL      0.007869
     36 H16         3.6220    7.5290   -2.0090 hx        1 MOL      0.084536
     37 H17         2.5470    7.1700   -3.3830 hx        1 MOL      0.084536
     38 H18         4.4760    7.3710   -4.3380 hn        1 MOL      0.323816
     39 H19         5.4350    6.5940   -3.2360 hn        1 MOL      0.323816
     40 H20         4.3740    5.8020   -4.2590 hn        1 MOL      0.323816
     41 N4         -1.4250    4.3910   -0.7090 n         1 MOL     -0.160359
     42 C13        -2.5880    4.7570   -1.5490 c3        1 MOL      0.013195
     43 C14        -3.9330    4.4270   -0.9590 c         1 MOL      0.469912
     44 O6         -4.9780    4.7870   -1.5380 o         1 MOL     -0.547147
     45 C15        -2.3740    4.3430   -2.9760 c3        1 MOL     -0.096228
     46 C16        -2.2450    2.7990   -3.0880 c         1 MOL      0.827887
     47 O7         -2.5520    2.0920   -2.1170 o         1 MOL     -0.729306
     48 O8         -1.9580    2.3870   -4.2510 o         1 MOL     -0.729306
     49 H21        -1.2540    3.3980   -0.7750 hn        1 MOL      0.028874
     50 H22        -2.6130    5.8460   -1.6430 h1        1 MOL      0.073051
     51 H23        -1.4840    4.7830   -3.4370 hc        1 MOL      0.023506
     52 H24        -3.2320    4.6050   -3.5950 hc        1 MOL      0.023506
     53 N5         -3.9970    3.7790    0.2170 n         1 MOL     -0.206588
     54 C17        -5.2090    3.5880    0.9720 c3        1 MOL     -0.277293
     55 C18        -6.0730    2.4530    0.4650 c         1 MOL      0.607903
     56 O9         -7.2580    2.2370    0.7870 o         1 MOL     -0.607616
     57 H25        -3.1290    3.4600    0.6210 hn        1 MOL      0.236678
     58 H26        -5.7070    4.5430    1.1310 h1        1 MOL      0.142247
     59 H27        -4.8050    3.2540    1.9220 h1        1 MOL      0.142247
     60 N6         -5.6280    1.6070   -0.4790 n         1 MOL     -0.159118
     61 C19        -6.4420    0.5960   -1.1130 c3        1 MOL      0.005457
     62 C20        -6.8880   -0.6450   -0.1740 c         1 MOL      0.396387
     63 O10        -7.7140   -1.4760   -0.5460 o         1 MOL     -0.525882
     64 C21        -5.6330    0.0850   -2.3510 c3        1 MOL     -0.304077
     65 C22        -4.7740   -1.0900   -2.1710 c         1 MOL      0.544776
     66 N7         -5.0260   -2.1960   -2.8590 n         1 MOL     -0.653221
     67 O11        -3.9010   -1.1680   -1.3580 o         1 MOL     -0.641065
     68 H28        -4.6340    1.6590   -0.6330 hn        1 MOL      0.057336
     69 H29        -7.3310    1.0830   -1.5100 h1        1 MOL      0.109830
     70 H30        -4.9980    0.8490   -2.8170 hc        1 MOL      0.115496
     71 H31        -6.3890   -0.2140   -3.0720 hc        1 MOL      0.115496
     72 H32        -5.7800   -2.2780   -3.5230 hn        1 MOL      0.339163
     73 H33        -4.4610   -2.9750   -2.5510 hn        1 MOL      0.339163
     74 N8         -6.1980   -0.7450    0.9870 n         1 MOL     -0.004863
     75 C23        -6.4470   -1.7570    1.9590 c3        1 MOL     -0.313110
     76 C24        -5.4060   -2.8750    2.0970 c         1 MOL      0.559957
     77 O12        -5.6820   -3.8320    2.8180 o         1 MOL     -0.583671
     78 H34        -5.5420   -0.0120    1.2170 hn        1 MOL      0.191737
     79 H35        -7.4210   -2.1960    1.7670 h1        1 MOL      0.133092
     80 H36        -6.4760   -1.2700    2.9360 h1        1 MOL      0.133092
     81 N9         -4.2230   -2.8460    1.5450 n         1 MOL     -0.212093
     82 C25        -3.0510   -3.6790    1.7810 c3        1 MOL     -0.073163
     83 C26        -1.7560   -3.0690    1.4390 c         1 MOL      0.610352
     84 O13        -1.6940   -2.1630    0.5700 o         1 MOL     -0.677355
     85 C27        -3.2760   -5.0310    1.0840 c3        1 MOL     -0.127409
     86 C28        -3.3560   -5.0270   -0.4690 ca        1 MOL      0.052795
     87 C29        -2.2050   -4.7790   -1.2760 ca        1 MOL     -0.137418
     88 C30        -4.6540   -5.1910   -1.1040 ca        1 MOL     -0.137418
     89 C31        -2.3210   -4.8710   -2.6730 ca        1 MOL     -0.277552
     90 C32        -4.7820   -5.1020   -2.4680 ca        1 MOL     -0.277552
     91 C33        -3.5930   -5.0460   -3.2680 ca        1 MOL      0.298762
     92 O14        -3.7170   -4.9340   -4.6330 oh        1 MOL     -0.500122
     93 H37        -4.1450   -2.0830    0.8860 hn        1 MOL      0.239018
     94 H38        -2.9870   -3.8610    2.8520 h1        1 MOL      0.088536
     95 H39        -4.2320   -5.4270    1.4190 hc        1 MOL      0.070062
     96 H40        -2.5070   -5.7650    1.3680 hc        1 MOL      0.070062
     97 H41        -1.2460   -4.5790   -0.8350 ha        1 MOL      0.149938
     98 H42        -5.4660   -5.4760   -0.4560 ha        1 MOL      0.149938
     99 H43        -1.4320   -4.6330   -3.2310 ha        1 MOL      0.161776
    100 H44        -5.7560   -5.0690   -2.9320 ha        1 MOL      0.161776
    101 H45        -4.5520   -5.3750   -4.8390 ho        1 MOL      0.367932
    102 N10        -0.6440   -3.5520    2.0470 n         1 MOL     -0.486640
    103 C34         0.7150   -3.0400    1.8800 c3        1 MOL      0.008016
    104 C35         1.6440   -3.8590    0.9470 c         1 MOL      0.513177
    105 O15         1.7340   -5.1140    1.0980 o         1 MOL     -0.554612
    106 C36         1.3140   -2.8540    3.2650 c3        1 MOL      0.152980
    107 C37         0.3400   -2.2850    4.4070 c3        1 MOL      0.104076
    108 C38         2.6130   -2.0060    3.1380 c3        1 MOL     -0.198088
    109 C39         0.8320   -2.5440    5.8660 c3        1 MOL     -0.250419
    110 H46        -0.7200   -4.3210    2.6940 hn        1 MOL      0.299724
    111 H47         0.5860   -2.0590    1.4230 h1        1 MOL      0.124116
    112 H48         1.6850   -3.8050    3.6330 hc        1 MOL     -0.021885
    113 H49        -0.6350   -2.7720    4.4410 hc        1 MOL      0.001653
    114 H50         0.1860   -1.2390    4.1600 hc        1 MOL      0.001653
    115 H51         2.4570   -0.9670    2.8540 hc        1 MOL      0.034318
    116 H52         3.1550   -1.8960    4.0740 hc        1 MOL      0.034318
    117 H53         3.4110   -2.4560    2.5410 hc        1 MOL      0.034318
    118 H54         1.8980   -2.7450    5.8400 hc        1 MOL      0.062488
    119 H55         0.7580   -1.6630    6.5120 hc        1 MOL      0.062488
    120 H56         0.3090   -3.3940    6.2890 hc        1 MOL      0.062488
    121 N11         2.3740   -3.2070    0.0140 n         1 MOL     -0.321439
    122 C40         3.4420   -3.8350   -0.8320 c3        1 MOL      0.150666
    123 C41         4.8520   -3.3800   -0.3410 c         1 MOL      0.315838
    124 O16         4.9830   -2.3650    0.3270 o         1 MOL     -0.255212
    125 C42         3.2360   -3.4040   -2.2570 c3        1 MOL     -0.106179
    126 O17         3.3970   -2.0430   -2.4340 oh        1 MOL     -0.481278
    127 H57         2.2520   -2.2130   -0.1170 hn        1 MOL      0.175589
    128 H58         3.3690   -4.9230   -0.8980 h1        1 MOL      0.064918
    129 H59         2.2370   -3.7220   -2.5400 h1        1 MOL      0.075576
    130 H60         3.9150   -4.0110   -2.8500 h1        1 MOL      0.075576
    131 H61         3.6240   -1.9690   -3.3580 ho        1 MOL      0.393325
    132 N12         5.9600   -4.0270   -0.8410 n         1 MOL     -0.475439
    133 C43         7.3440   -3.6420   -0.5590 c3        1 MOL      0.162096
    134 C44         7.5890   -2.2110   -0.9590 c         1 MOL      0.454568
    135 O18         8.3050   -1.5820   -0.2380 o         1 MOL     -0.500616
    136 C45         8.2760   -4.5330   -1.4110 c3        1 MOL     -0.342137
    137 H62         5.8370   -4.8510   -1.4150 hn        1 MOL      0.297830
    138 H63         7.5470   -3.7800    0.5020 h1        1 MOL      0.086990
    139 H64         8.2580   -5.5390   -1.0160 hc        1 MOL      0.104234
    140 H65         7.8790   -4.6420   -2.4250 hc        1 MOL      0.104234
    141 H66         9.3260   -4.2330   -1.3860 hc        1 MOL      0.104234
    142 N13         7.0530   -1.7250   -2.0730 n         1 MOL     -0.434785
    143 C46         7.2300   -0.2410   -2.3200 c3        1 MOL      0.159789
    144 C47         6.6040    0.7270   -1.2680 c         1 MOL      0.220232
    145 O19         7.2050    1.7860   -1.0400 o         1 MOL     -0.486746
    146 C48         6.5400    0.1640   -3.6130 c3        1 MOL     -0.343344
    147 H67         6.5470   -2.3290   -2.6970 hn        1 MOL      0.268012
    148 H68         8.3130   -0.1000   -2.3580 h1        1 MOL      0.104213
    149 H69         7.1360   -0.2450   -4.4230 hc        1 MOL      0.090155
    150 H70         5.5290   -0.2200   -3.7510 hc        1 MOL      0.090155
    151 H71         6.6160    1.2450   -3.7020 hc        1 MOL      0.090155
    152 N14         5.5200    0.3760   -0.5980 n         1 MOL      0.061441
    153 C49         4.8900    1.3450    0.3430 c3        1 MOL     -0.284355
    154 C50         5.6100    1.2940    1.6920 c         1 MOL      0.552014
    155 O20         5.7950    2.3450    2.2830 o         1 MOL     -0.536344
    156 C51         3.4760    0.9300    0.4710 c3        1 MOL     -0.028928
    157 C52         2.7860    1.0530   -0.8740 c3        1 MOL      0.021822
    158 C53         1.2900    0.7350   -0.8040 c         1 MOL      0.828593
    159 O21         0.8550   -0.1810   -0.0750 o         1 MOL     -0.797171
    160 O22         0.4800    1.3270   -1.5830 o         1 MOL     -0.797171
    161 H72         4.9820   -0.4380   -0.8640 hn        1 MOL      0.205611
    162 H73         4.7430    2.3510   -0.0580 h1        1 MOL      0.114201
    163 H74         3.0260    1.5610    1.2450 hc        1 MOL      0.059325
    164 H75         3.3780   -0.1140    0.7830 hc        1 MOL      0.059325
    165 H76         3.1000    0.3970   -1.6910 hc        1 MOL     -0.055883
    166 H77         2.9380    2.0660   -1.2400 hc        1 MOL     -0.055883
    167 N15         6.1480    0.0980    2.0210 n         1 MOL     -0.106826
    168 C54         7.0330   -0.0650    3.1430 c3        1 MOL     -0.295450
    169 H78         6.9300    0.7890    3.8130 h1        1 MOL      0.113994
    170 H79         6.7770   -0.9780    3.6790 h1        1 MOL      0.113994
    171 H80         8.0620   -0.1270    2.7890 h1        1 MOL      0.113994
    172 H81         5.9360   -0.6980    1.4340 hn        1 MOL      0.085012
    173 Ca1        -1.5920   -0.1280   -1.1650 Ca        1 MOL      1.802252
    174 O23         0.4410   -1.3320   -2.7730 oh        1 MOL     -0.807772
    175 H82         1.3240   -1.5180   -2.4440 ho        1 MOL      0.387905
    176 H83         0.3810   -1.8120   -3.5960 ho        1 MOL      0.387905
    177 O24        -2.0190   -0.3310   -3.8580 oh        1 MOL     -0.807772
    178 H84        -2.4180   -0.7610   -4.6140 ho        1 MOL      0.387905
    179 H85        -2.0980    0.6120   -4.0370 ho        1 MOL      0.387905
@<TRIPOS>BOND
     1    1    2 1   
     2    1    4 1   
     3    1    5 1   
     4    1    6 1   
     5    2    3 2   
     6    2    7 1   
     7    7    8 1   
     8    7   15 1   
     9    8    9 1   
    10    8   11 1   
    11    8   16 1   
    12    9   10 2   
    13    9   19 1   
    14   11   12 1   
    15   11   17 1   
    16   11   18 1   
    17   12   13 1   
    18   12   14 1   
    19   19   20 1   
    20   19   28 1   
    21   20   21 1   
    22   20   23 1   
    23   20   29 1   
    24   21   22 2   
    25   21   41 1   
    26   23   24 1   
    27   23   30 1   
    28   23   31 1   
    29   24   25 1   
    30   24   32 1   
    31   24   33 1   
    32   25   26 1   
    33   25   34 1   
    34   25   35 1   
    35   26   27 1   
    36   26   36 1   
    37   26   37 1   
    38   27   38 1   
    39   27   39 1   
    40   27   40 1   
    41   41   42 1   
    42   41   49 1   
    43   42   43 1   
    44   42   45 1   
    45   42   50 1   
    46   43   44 2   
    47   43   53 1   
    48   45   46 1   
    49   45   51 1   
    50   45   52 1   
    51   46   47 1   
    52   46   48 1   
    53   53   54 1   
    54   53   57 1   
    55   54   55 1   
    56   54   58 1   
    57   54   59 1   
    58   55   56 2   
    59   55   60 1   
    60   60   61 1   
    61   60   68 1   
    62   61   62 1   
    63   61   64 1   
    64   61   69 1   
    65   62   63 2   
    66   62   74 1   
    67   64   65 1   
    68   64   70 1   
    69   64   71 1   
    70   65   66 1   
    71   65   67 2   
    72   66   72 1   
    73   66   73 1   
    74   74   75 1   
    75   74   78 1   
    76   75   76 1   
    77   75   79 1   
    78   75   80 1   
    79   76   77 2   
    80   76   81 1   
    81   81   82 1   
    82   81   93 1   
    83   82   83 1   
    84   82   85 1   
    85   82   94 1   
    86   83   84 2   
    87   83  102 1   
    88   85   86 1   
    89   85   95 1   
    90   85   96 1   
    91   86   87 ar  
    92   86   88 ar  
    93   87   89 ar  
    94   87   97 1   
    95   88   90 ar  
    96   88   98 1   
    97   89   91 ar  
    98   89   99 1   
    99   90   91 ar  
   100   90  100 1   
   101   91   92 1   
   102   92  101 1   
   103  102  103 1   
   104  102  110 1   
   105  103  104 1   
   106  103  106 1   
   107  103  111 1   
   108  104  105 2   
   109  104  121 1   
   110  106  107 1   
   111  106  108 1   
   112  106  112 1   
   113  107  109 1   
   114  107  113 1   
   115  107  114 1   
   116  108  115 1   
   117  108  116 1   
   118  108  117 1   
   119  109  118 1   
   120  109  119 1   
   121  109  120 1   
   122  121  122 1   
   123  121  127 1   
   124  122  123 1   
   125  122  125 1   
   126  122  128 1   
   127  123  124 2   
   128  123  132 1   
   129  125  126 1   
   130  125  129 1   
   131  125  130 1   
   132  126  131 1   
   133  132  133 1   
   134  132  137 1   
   135  133  134 1   
   136  133  136 1   
   137  133  138 1   
   138  134  135 2   
   139  134  142 1   
   140  136  139 1   
   141  136  140 1   
   142  136  141 1   
   143  142  143 1   
   144  142  147 1   
   145  143  144 1   
   146  143  146 1   
   147  143  148 1   
   148  144  145 2   
   149  144  152 1   
   150  146  149 1   
   151  146  150 1   
   152  146  151 1   
   153  152  153 1   
   154  152  161 1   
   155  153  154 1   
   156  153  156 1   
   157  153  162 1   
   158  154  155 2   
   159  154  167 1   
   160  156  157 1   
   161  156  163 1   
   162  156  164 1   
   163  157  158 1   
   164  157  165 1   
   165  157  166 1   
   166  158  159 1   
   167  158  160 1   
   168  167  168 1   
   169  167  172 1   
   170  168  169 1   
   171  168  170 1   
   172  168  171 1   
   173  174  175 1   
   174  174  176 1   
   175  177  178 1   
   176  177  179 1   
@<TRIPOS>SUBSTRUCTURE
     1 MOL         1 TEMP              0 ****  ****    0 ROOT
