@<TRIPOS>MOLECULE
MOL
  189   185     1     0     0
SMALL
resp


@<TRIPOS>ATOM
      1 C1         -0.2650    2.0320    6.1830 c3        1 MOL     -0.283983
      2 C2         -0.6320    1.6190    4.7480 c         1 MOL      0.630927
      3 O1          0.0830    2.0020    3.8300 o         1 MOL     -0.558549
      4 H1         -1.0750    1.7560    6.8590 hc        1 MOL      0.080180
      5 H2          0.6490    1.5210    6.4850 hc        1 MOL      0.080180
      6 H3         -0.1090    3.1100    6.2230 hc        1 MOL      0.080180
      7 N1         -1.8600    1.0370    4.4390 n         1 MOL     -0.504805
      8 C3         -2.4670    1.0240    3.0840 c3        1 MOL      0.090801
      9 C4         -2.8070    2.4490    2.6640 c         1 MOL      0.479194
     10 O2         -3.8100    2.9710    3.1480 o         1 MOL     -0.529862
     11 C5         -3.6530    0.0960    2.9890 c3        1 MOL     -0.287104
     12 C6         -4.2670    0.0570    1.5520 c         1 MOL      0.667021
     13 O3         -5.3400   -0.5540    1.4070 o         1 MOL     -0.565753
     14 O4         -3.5630    0.4620    0.5590 o         1 MOL     -0.565753
     15 H4         -2.3750    0.5790    5.1790 hn        1 MOL      0.320195
     16 H5         -1.7790    0.6920    2.3160 h1        1 MOL     -0.040562
     17 H6         -4.3270    0.4180    3.7740 hc        1 MOL      0.076133
     18 H7         -3.3320   -0.9010    3.2860 hc        1 MOL      0.076133
     19 N2         -2.0230    3.1310    1.8080 n         1 MOL     -0.029556
     20 C7         -2.1550    4.5280    1.5030 c3        1 MOL     -0.089555
     21 C8         -3.2030    4.8370    0.4610 c         1 MOL      0.386892
     22 O5         -4.0210    5.7150    0.7540 o         1 MOL     -0.542942
     23 C9         -0.7850    5.1500    1.0280 c3        1 MOL     -0.101215
     24 C10        -0.8690    6.6850    1.0550 c3        1 MOL     -0.013753
     25 C11         0.3340    7.4260    0.4180 c3        1 MOL     -0.139111
     26 C12         0.2200    7.3340   -1.1110 c3        1 MOL     -0.253931
     27 N3          0.7510    6.1130   -1.7920 n4        1 MOL     -0.395287
     28 H8         -1.2950    2.5890    1.3540 hn        1 MOL     -0.010294
     29 H9         -2.3980    4.9940    2.4530 h1        1 MOL      0.102265
     30 H10        -0.5580    4.7820    0.0220 hc        1 MOL      0.081449
     31 H11         0.0130    4.9150    1.7210 hc        1 MOL      0.081449
     32 H12        -1.0610    7.0190    2.0820 hc        1 MOL      0.050040
     33 H13        -1.7340    6.9150    0.4400 hc        1 MOL      0.050040
     34 H14         1.2410    6.9530    0.8030 hc        1 MOL      0.095739
     35 H15         0.4120    8.4420    0.7910 hc        1 MOL      0.095739
     36 H16         0.5840    8.2690   -1.5080 hx        1 MOL      0.169257
     37 H17        -0.8490    7.4320   -1.3140 hx        1 MOL      0.169257
     38 H18         1.6910    6.0650   -1.4260 hn        1 MOL      0.348206
     39 H19         0.2730    5.2670   -1.5110 hn        1 MOL      0.348206
     40 H20         0.7670    6.2510   -2.7960 hn        1 MOL      0.348206
     41 N4         -3.3050    4.1390   -0.6450 n         1 MOL     -0.193400
     42 C13        -4.3480    4.3640   -1.6710 c3        1 MOL      0.120332
     43 C14        -5.6680    3.6490   -1.4360 c         1 MOL      0.493312
     44 O6         -6.7110    4.1750   -1.8350 o         1 MOL     -0.568773
     45 C15        -3.8420    3.9030   -3.0860 c3        1 MOL     -0.568806
     46 C16        -2.9700    2.6660   -3.1260 c         1 MOL      0.812756
     47 O7         -1.9780    2.6240   -3.8650 o         1 MOL     -0.700721
     48 O8         -3.1870    1.8080   -2.1960 o         1 MOL     -0.700721
     49 H21        -2.6950    3.3370   -0.7740 hn        1 MOL      0.228762
     50 H22        -4.6510    5.4060   -1.6610 h1        1 MOL      0.054166
     51 H23        -3.2350    4.7460   -3.3920 hc        1 MOL      0.144799
     52 H24        -4.7400    3.8050   -3.7000 hc        1 MOL      0.144799
     53 N5         -5.6940    2.4860   -0.7820 n         1 MOL     -0.091286
     54 C17        -6.9950    1.8600   -0.4370 c3        1 MOL      0.006390
     55 C18        -7.4270    0.7010   -1.3210 c         1 MOL      0.566215
     56 O9         -8.4570    0.7130   -1.9310 o         1 MOL     -0.557838
     57 H25        -4.8400    1.9760   -0.6520 hn        1 MOL     -0.003833
     58 H26        -7.7740    2.6140   -0.3660 h1        1 MOL      0.033299
     59 H27        -7.0270    1.4090    0.5580 h1        1 MOL      0.033299
     60 N6         -6.5370   -0.2840   -1.3860 n         1 MOL     -0.305893
     61 C19        -6.7470   -1.5170   -2.1690 c3        1 MOL      0.047671
     62 C20        -6.8160   -2.7850   -1.2790 c         1 MOL      0.347920
     63 O10        -7.1300   -3.8980   -1.7060 o         1 MOL     -0.513046
     64 C21        -5.7380   -1.6370   -3.2720 c3        1 MOL     -0.215121
     65 C22        -4.3430   -1.6840   -2.8000 c         1 MOL      0.727263
     66 O11        -3.4190   -1.1140   -3.4280 o         1 MOL     -0.755408
     67 O12        -4.0760   -1.9970   -1.6360 o         1 MOL     -0.755408
     68 H28        -5.7680   -0.3090   -0.7200 hn        1 MOL      0.225465
     69 H29        -7.7190   -1.4140   -2.6480 h1        1 MOL      0.105114
     70 H30        -5.9240   -0.8300   -3.9830 hc        1 MOL      0.082793
     71 H31        -5.8340   -2.5870   -3.8000 hc        1 MOL      0.082793
     72 N7         -6.6060   -2.6470    0.0700 n         1 MOL     -0.141097
     73 C23        -6.6710   -3.6880    1.0240 c3        1 MOL     -0.264019
     74 C24        -5.3180   -4.4180    1.0780 c         1 MOL      0.537894
     75 O13        -5.2880   -5.4370    1.7170 o         1 MOL     -0.575931
     76 H32        -6.1590   -1.7990    0.3990 hn        1 MOL      0.101724
     77 H33        -7.3900   -4.4700    0.7880 h1        1 MOL      0.140310
     78 H34        -6.8660   -3.2100    1.9850 h1        1 MOL      0.140310
     79 N8         -4.2290   -3.8940    0.4810 n         1 MOL     -0.124838
     80 C25        -2.9240   -4.5190    0.4460 c3        1 MOL     -0.069748
     81 C26        -1.7370   -3.5610    0.5870 c         1 MOL      0.464236
     82 O14        -1.9220   -2.3590    0.6390 o         1 MOL     -0.587454
     83 C27        -2.8010   -5.3370   -0.8600 c3        1 MOL      0.446279
     84 C28        -3.5470   -6.6750   -0.9270 c3        1 MOL     -0.414113
     85 O15        -3.2040   -4.6680   -2.0410 oh        1 MOL     -0.670165
     86 H35        -4.3710   -3.0520   -0.0520 hn        1 MOL      0.081656
     87 H36        -2.8360   -5.1740    1.3100 h1        1 MOL      0.065333
     88 H37        -1.7180   -5.4780   -0.8250 h1        1 MOL     -0.054942
     89 H38        -3.6020   -3.8380   -1.7790 ho        1 MOL      0.484303
     90 H39        -4.6120   -6.6230   -0.6690 hc        1 MOL      0.104657
     91 H40        -3.2870   -7.1260   -1.8870 hc        1 MOL      0.104657
     92 H41        -3.1650   -7.4060   -0.2010 hc        1 MOL      0.104657
     93 N9         -0.5480   -4.0400    0.8420 n         1 MOL     -0.404677
     94 C29         0.5970   -3.2860    1.2270 c3        1 MOL      0.077149
     95 C30         1.8400   -3.6360    0.3400 c         1 MOL      0.430143
     96 O16         2.3720   -4.7400    0.3420 o         1 MOL     -0.532319
     97 C31         0.8100   -3.3260    2.8140 c3        1 MOL      0.022982
     98 C32        -0.1610   -2.2710    3.4540 c3        1 MOL     -0.114918
     99 C33         2.3260   -3.2070    3.2840 c3        1 MOL     -0.180291
    100 C34         0.0770   -2.1640    5.0060 c3        1 MOL     -0.344850
    101 H42        -0.5340   -5.0160    1.1050 hn        1 MOL      0.276662
    102 H43         0.4150   -2.2800    0.8710 h1        1 MOL     -0.053599
    103 H44         0.5050   -4.3520    3.0500 hc        1 MOL      0.039180
    104 H45        -1.1910   -2.5800    3.3200 hc        1 MOL      0.156499
    105 H46         0.0080   -1.2740    3.0340 hc        1 MOL      0.156499
    106 H47         3.0860   -3.7910    2.7550 hc        1 MOL      0.044489
    107 H48         2.7160   -2.2070    3.0940 hc        1 MOL      0.044489
    108 H49         2.3770   -3.4330    4.3460 hc        1 MOL      0.044489
    109 H50        -0.7820   -1.5980    5.3690 hc        1 MOL      0.080499
    110 H51         0.0980   -3.1620    5.4290 hc        1 MOL      0.080499
    111 H52         1.0200   -1.7010    5.2850 hc        1 MOL      0.080499
    112 N10         2.3080   -2.6710   -0.4470 n         1 MOL     -0.133780
    113 C35         3.5540   -2.6110   -1.1940 c3        1 MOL     -0.011630
    114 C36         4.8290   -2.4040   -0.3890 c         1 MOL      0.366691
    115 O17         4.7660   -1.9750    0.7360 o         1 MOL     -0.249514
    116 C37         3.4300   -1.5010   -2.2910 c3        1 MOL      0.195496
    117 C38         2.1080   -1.3520   -3.0320 c3        1 MOL     -0.302934
    118 O18         3.7710   -0.2270   -1.8170 oh        1 MOL     -0.569693
    119 H53         1.7920   -1.8030   -0.4720 hn        1 MOL      0.185039
    120 H54         3.6120   -3.6090   -1.6290 h1        1 MOL      0.063299
    121 H55         4.2010   -1.8690   -2.9800 h1        1 MOL      0.011511
    122 H56         3.3540    0.4610   -2.3350 ho        1 MOL      0.414332
    123 H57         1.5120   -0.5890   -2.5170 hc        1 MOL      0.095099
    124 H58         2.3880   -1.0610   -4.0450 hc        1 MOL      0.095099
    125 H59         1.5320   -2.2670   -3.1190 hc        1 MOL      0.095099
    126 N11         6.0500   -2.6800   -0.9460 n         1 MOL     -0.446032
    127 C39         7.3310   -2.2940   -0.3010 c3        1 MOL      0.014057
    128 C40         7.3780   -0.8740    0.0940 c         1 MOL      0.122208
    129 O19         8.0730   -0.4930    1.0510 o         1 MOL     -0.495219
    130 C41         8.4600   -2.4750   -1.3380 c3        1 MOL      0.307310
    131 C42         8.7690   -3.9400   -1.7200 c3        1 MOL     -0.458074
    132 O20         8.2550   -1.9050   -2.6140 oh        1 MOL     -0.617677
    133 H60         6.0770   -2.9450   -1.9240 hn        1 MOL      0.308747
    134 H61         7.5220   -2.8700    0.5920 h1        1 MOL      0.148514
    135 H62         9.3550   -2.0440   -0.8680 h1        1 MOL      0.020207
    136 H63         9.1310   -1.7590   -2.9890 ho        1 MOL      0.402533
    137 H64         7.8620   -4.5160   -1.8900 hc        1 MOL      0.129337
    138 H65         9.4860   -3.8510   -2.5390 hc        1 MOL      0.129337
    139 H66         9.3040   -4.3380   -0.8510 hc        1 MOL      0.129337
    140 N12         6.5790    0.0100   -0.5220 n         1 MOL      0.126460
    141 C43         6.7220    1.4540   -0.3010 c3        1 MOL      0.071057
    142 C44         5.7600    1.8790    0.8450 c         1 MOL      0.228228
    143 O21         5.9990    2.8030    1.6100 o         1 MOL     -0.486455
    144 C45         6.4980    2.2470   -1.6380 c3        1 MOL     -0.271592
    145 C46         7.3540    1.8060   -2.8550 c3        1 MOL     -0.036530
    146 C47         8.8290    2.0460   -2.5530 c3        1 MOL      0.151690
    147 C48         9.8440    1.5890   -3.6620 c3        1 MOL     -0.037733
    148 N13        11.2900    1.7730   -3.2980 n4        1 MOL     -0.313631
    149 H67         5.8960   -0.3260   -1.1950 hn        1 MOL      0.115817
    150 H68         7.7260    1.7680   -0.0230 h1        1 MOL      0.061640
    151 H69         6.7680    3.2820   -1.4080 hc        1 MOL      0.094470
    152 H70         5.4200    2.1950   -1.8310 hc        1 MOL      0.094470
    153 H71         7.0200    2.3870   -3.7060 hc        1 MOL      0.010490
    154 H72         7.2550    0.7320   -2.9880 hc        1 MOL      0.010490
    155 H73         8.9980    1.3680   -1.7120 hc        1 MOL      0.001861
    156 H74         9.0150    3.0170   -2.0900 hc        1 MOL      0.001861
    157 H75         9.5910    2.1170   -4.5810 hx        1 MOL      0.083037
    158 H76         9.6900    0.5330   -3.8610 hx        1 MOL      0.083037
    159 H77        11.4550    2.5870   -2.7190 hn        1 MOL      0.298129
    160 H78        11.6230    1.0560   -2.6560 hn        1 MOL      0.298129
    161 H79        11.8560    1.7830   -4.1290 hn        1 MOL      0.298129
    162 N14         4.6800    1.1420    0.9860 n         1 MOL     -0.051912
    163 C49         3.7360    1.2170    2.1660 c3        1 MOL     -0.079804
    164 C50         4.3700    0.5960    3.3700 c         1 MOL      0.450105
    165 O22         4.3680    1.1240    4.4510 o         1 MOL     -0.531802
    166 C51         2.4280    0.5630    1.6580 c3        1 MOL      0.301492
    167 C52         1.5670    1.5860    0.7970 c3        1 MOL     -0.125963
    168 C53         0.3630    0.9580    0.1930 c         1 MOL      0.750271
    169 O23         0.2760   -0.2530   -0.0260 o         1 MOL     -0.718162
    170 O24        -0.5620    1.7160   -0.2390 o         1 MOL     -0.718162
    171 H80         4.3720    0.5770    0.2020 hn        1 MOL      0.105913
    172 H81         3.5560    2.2430    2.5110 h1        1 MOL      0.079990
    173 H82         1.8030    0.2720    2.5110 hc        1 MOL     -0.040070
    174 H83         2.7240   -0.3290    1.1010 hc        1 MOL     -0.040070
    175 H84         2.1870    2.0480    0.0210 hc        1 MOL     -0.034670
    176 H85         1.3040    2.4320    1.4320 hc        1 MOL     -0.034670
    177 N15         4.9950   -0.5700    3.1910 n         1 MOL      0.014916
    178 C54         5.8050   -1.1160    4.2640 c3        1 MOL     -0.407969
    179 H86         5.2250   -1.1240    5.1870 h1        1 MOL      0.133607
    180 H87         6.1020   -2.1340    4.0130 h1        1 MOL      0.133607
    181 H88         6.6940   -0.4990    4.3980 h1        1 MOL      0.133607
    182 H89         4.8010   -1.0140    2.3080 hn        1 MOL      0.054537
    183 Ca1        -1.9810   -0.3980   -1.2580 Ca        1 MOL      1.776160
    184 O25        -0.6800    0.1570   -3.5490 oh        1 MOL     -0.849174
    185 H90        -0.3660    0.9510   -3.9840 ho        1 MOL      0.403986
    186 H91        -1.0690   -0.3610   -4.2520 ho        1 MOL      0.403986
    187 O26        -1.0130   -2.8360   -2.1920 oh        1 MOL     -0.849174
    188 H92        -1.8010   -3.3520   -2.3650 ho        1 MOL      0.403986
    189 H93        -0.4750   -2.9450   -2.9740 ho        1 MOL      0.403986
@<TRIPOS>BOND
     1    1    2 1   
     2    1    4 1   
     3    1    5 1   
     4    1    6 1   
     5    2    3 2   
     6    2    7 1   
     7    7    8 1   
     8    7   15 1   
     9    8    9 1   
    10    8   11 1   
    11    8   16 1   
    12    9   10 2   
    13    9   19 1   
    14   11   12 1   
    15   11   17 1   
    16   11   18 1   
    17   12   13 1   
    18   12   14 1   
    19   19   20 1   
    20   19   28 1   
    21   20   21 1   
    22   20   23 1   
    23   20   29 1   
    24   21   22 2   
    25   21   41 1   
    26   23   24 1   
    27   23   30 1   
    28   23   31 1   
    29   24   25 1   
    30   24   32 1   
    31   24   33 1   
    32   25   26 1   
    33   25   34 1   
    34   25   35 1   
    35   26   27 1   
    36   26   36 1   
    37   26   37 1   
    38   27   38 1   
    39   27   39 1   
    40   27   40 1   
    41   41   42 1   
    42   41   49 1   
    43   42   43 1   
    44   42   45 1   
    45   42   50 1   
    46   43   44 2   
    47   43   53 1   
    48   45   46 1   
    49   45   51 1   
    50   45   52 1   
    51   46   47 1   
    52   46   48 1   
    53   53   54 1   
    54   53   57 1   
    55   54   55 1   
    56   54   58 1   
    57   54   59 1   
    58   55   56 2   
    59   55   60 1   
    60   60   61 1   
    61   60   68 1   
    62   61   62 1   
    63   61   64 1   
    64   61   69 1   
    65   62   63 2   
    66   62   72 1   
    67   64   65 1   
    68   64   70 1   
    69   64   71 1   
    70   65   66 1   
    71   65   67 1   
    72   72   73 1   
    73   72   76 1   
    74   73   74 1   
    75   73   77 1   
    76   73   78 1   
    77   74   75 2   
    78   74   79 1   
    79   79   80 1   
    80   79   86 1   
    81   80   81 1   
    82   80   83 1   
    83   80   87 1   
    84   81   82 2   
    85   81   93 1   
    86   83   84 1   
    87   83   85 1   
    88   83   88 1   
    89   84   90 1   
    90   84   91 1   
    91   84   92 1   
    92   85   89 1   
    93   93   94 1   
    94   93  101 1   
    95   94   95 1   
    96   94   97 1   
    97   94  102 1   
    98   95   96 2   
    99   95  112 1   
   100   97   98 1   
   101   97   99 1   
   102   97  103 1   
   103   98  100 1   
   104   98  104 1   
   105   98  105 1   
   106   99  106 1   
   107   99  107 1   
   108   99  108 1   
   109  100  109 1   
   110  100  110 1   
   111  100  111 1   
   112  112  113 1   
   113  112  119 1   
   114  113  114 1   
   115  113  116 1   
   116  113  120 1   
   117  114  115 2   
   118  114  126 1   
   119  116  117 1   
   120  116  118 1   
   121  116  121 1   
   122  117  123 1   
   123  117  124 1   
   124  117  125 1   
   125  118  122 1   
   126  126  127 1   
   127  126  133 1   
   128  127  128 1   
   129  127  130 1   
   130  127  134 1   
   131  128  129 2   
   132  128  140 1   
   133  130  131 1   
   134  130  132 1   
   135  130  135 1   
   136  131  137 1   
   137  131  138 1   
   138  131  139 1   
   139  132  136 1   
   140  140  141 1   
   141  140  149 1   
   142  141  142 1   
   143  141  144 1   
   144  141  150 1   
   145  142  143 2   
   146  142  162 1   
   147  144  145 1   
   148  144  151 1   
   149  144  152 1   
   150  145  146 1   
   151  145  153 1   
   152  145  154 1   
   153  146  147 1   
   154  146  155 1   
   155  146  156 1   
   156  147  148 1   
   157  147  157 1   
   158  147  158 1   
   159  148  159 1   
   160  148  160 1   
   161  148  161 1   
   162  162  163 1   
   163  162  171 1   
   164  163  164 1   
   165  163  166 1   
   166  163  172 1   
   167  164  165 2   
   168  164  177 1   
   169  166  167 1   
   170  166  173 1   
   171  166  174 1   
   172  167  168 1   
   173  167  175 1   
   174  167  176 1   
   175  168  169 1   
   176  168  170 1   
   177  177  178 1   
   178  177  182 1   
   179  178  179 1   
   180  178  180 1   
   181  178  181 1   
   182  184  185 1   
   183  184  186 1   
   184  187  188 1   
   185  187  189 1   
@<TRIPOS>SUBSTRUCTURE
     1 MOL         1 TEMP              0 ****  ****    0 ROOT
