@<TRIPOS>MOLECULE
MOL
  175   173     1     0     0
SMALL
resp


@<TRIPOS>ATOM
      1 C1          0.2170    4.0370    5.5470 c3        1 MOL     -0.362081
      2 C2         -0.3380    4.0580    4.1580 c         1 MOL      0.714052
      3 O1          0.4800    4.1460    3.2390 o         1 MOL     -0.548795
      4 H1         -0.4070    3.4030    6.1780 hc        1 MOL      0.084540
      5 H2          1.2330    3.6420    5.5270 hc        1 MOL      0.084540
      6 H3          0.2290    5.0500    5.9500 hc        1 MOL      0.084540
      7 N1         -1.6390    3.8230    3.9720 n         1 MOL     -0.641172
      8 C3         -2.2460    3.5320    2.6830 c3        1 MOL      0.165491
      9 C4         -2.3250    4.7560    1.7140 c         1 MOL      0.463877
     10 O2         -2.4930    5.9280    2.1950 o         1 MOL     -0.564258
     11 C5         -3.5780    2.8820    2.8840 c3        1 MOL     -0.315796
     12 C6         -4.2580    2.2680    1.6150 c         1 MOL      0.832184
     13 O3         -5.3950    1.8240    1.7360 o         1 MOL     -0.723713
     14 O4         -3.6400    2.0870    0.5850 o         1 MOL     -0.723713
     15 H4         -2.2390    3.9350    4.7660 hn        1 MOL      0.333908
     16 H5         -1.6250    2.7140    2.3210 h1        1 MOL      0.120514
     17 H6         -4.2510    3.5270    3.4300 hc        1 MOL      0.059042
     18 H7         -3.4900    2.0540    3.5900 hc        1 MOL      0.059042
     19 N2         -2.2220    4.5340    0.4150 n         1 MOL     -0.379681
     20 C7         -2.3650    5.5730   -0.6080 c3        1 MOL      0.360220
     21 C8         -3.1470    5.0890   -1.8500 c         1 MOL      0.329492
     22 O5         -3.2870    5.7770   -2.8370 o         1 MOL     -0.516025
     23 C9         -0.9290    6.0600   -0.9740 c3        1 MOL     -0.374056
     24 H8         -2.0070    3.6170    0.0630 hn        1 MOL      0.282912
     25 H9         -2.8860    6.4150   -0.1540 h1        1 MOL     -0.003475
     26 H10        -0.2400    5.7780   -0.1650 hc        1 MOL      0.094878
     27 H11        -0.6490    5.6180   -1.9270 hc        1 MOL      0.094878
     28 H12        -0.8880    7.1420   -1.1180 hc        1 MOL      0.094878
     29 N3         -3.7250    3.8270   -1.7830 n         1 MOL     -0.172215
     30 C10        -4.6120    3.3220   -2.9240 c3        1 MOL     -0.043026
     31 C11        -5.9080    2.4570   -2.6230 c         1 MOL      0.369593
     32 O6         -6.7280    2.0820   -3.4990 o         1 MOL     -0.532300
     33 C12        -3.7480    2.5130   -3.9190 c3        1 MOL     -0.176355
     34 C13        -2.8530    1.4310   -3.2610 c         1 MOL      0.688229
     35 O7         -3.3280    0.7030   -2.3460 o         1 MOL     -0.664432
     36 O8         -1.7230    1.2940   -3.7390 o         1 MOL     -0.664432
     37 H13        -3.8250    3.4290   -0.8620 hn        1 MOL      0.051448
     38 H14        -4.9030    4.2050   -3.4950 h1        1 MOL      0.097115
     39 H15        -3.1120    3.2720   -4.3800 hc        1 MOL      0.051251
     40 H16        -4.4400    2.0680   -4.6300 hc        1 MOL      0.051251
     41 N4         -6.0950    2.0040   -1.4010 n         1 MOL     -0.212979
     42 C14        -7.3290    1.2930   -0.9490 c3        1 MOL     -0.303306
     43 C15        -7.4130   -0.1840   -1.3220 c         1 MOL      0.561688
     44 O9         -8.4900   -0.7670   -1.2400 o         1 MOL     -0.605628
     45 H17        -5.3110    2.0930   -0.7670 hn        1 MOL      0.244964
     46 H18        -8.1700    1.8420   -1.3920 h1        1 MOL      0.147142
     47 H19        -7.3920    1.4920    0.1190 h1        1 MOL      0.147142
     48 N5         -6.2930   -0.8560   -1.6650 n         1 MOL     -0.148957
     49 C16        -6.2400   -2.2890   -2.0290 c3        1 MOL     -0.031882
     50 C17        -6.2740   -3.3010   -0.9160 c         1 MOL      0.458243
     51 O10        -6.2800   -4.5070   -1.1190 o         1 MOL     -0.521971
     52 C18        -5.0670   -2.3840   -3.0030 c3        1 MOL     -0.209321
     53 C19        -3.6500   -2.3050   -2.4290 c         1 MOL      0.591343
     54 N6         -2.6740   -2.4330   -3.3080 n         1 MOL     -0.612999
     55 O11        -3.4750   -1.9870   -1.2100 o         1 MOL     -0.380830
     56 H20        -5.3770   -0.4460   -1.5090 hn        1 MOL      0.099548
     57 H21        -7.1170   -2.5670   -2.6180 h1        1 MOL      0.098104
     58 H22        -5.1090   -1.5790   -3.7440 hc        1 MOL      0.061394
     59 H23        -5.1570   -3.3440   -3.5110 hc        1 MOL      0.061394
     60 H24        -2.8850   -2.7490   -4.2490 hn        1 MOL      0.315625
     61 H25        -1.7490   -2.0440   -3.2060 hn        1 MOL      0.315625
     62 N7         -6.2380   -2.7670    0.2950 n         1 MOL     -0.239688
     63 C20        -6.2810   -3.6190    1.4980 c3        1 MOL     -0.177347
     64 C21        -5.0020   -4.3480    1.8390 c         1 MOL      0.570885
     65 O12        -4.9960   -5.3180    2.5550 o         1 MOL     -0.611433
     66 H26        -6.3270   -1.7670    0.4260 hn        1 MOL      0.255048
     67 H27        -7.0970   -4.3310    1.4000 h1        1 MOL      0.083197
     68 H28        -6.4330   -2.9000    2.2960 h1        1 MOL      0.083197
     69 N8         -3.9170   -3.8810    1.3510 n         1 MOL     -0.143342
     70 C22        -2.5280   -4.4460    1.5960 c3        1 MOL     -0.105611
     71 C23        -1.4930   -3.2940    1.5700 c         1 MOL      0.421728
     72 O13        -1.6860   -2.2350    0.9560 o         1 MOL     -0.512093
     73 C24        -2.1560   -5.3400    0.3740 c3        1 MOL      0.611202
     74 C25        -2.8150   -6.6670    0.5390 c3        1 MOL     -0.521381
     75 O14        -2.4930   -4.8850   -0.9580 oh        1 MOL     -0.596348
     76 H29        -3.9850   -3.0220    0.8290 hn        1 MOL      0.024096
     77 H30        -2.4000   -5.0500    2.4930 h1        1 MOL      0.087717
     78 H31        -1.0770   -5.4860    0.4490 h1        1 MOL     -0.074636
     79 H32        -2.3560   -3.9400   -0.9850 ho        1 MOL      0.274008
     80 H33        -2.5240   -7.3510   -0.2610 hc        1 MOL      0.122878
     81 H34        -2.5190   -7.0690    1.5010 hc        1 MOL      0.122878
     82 H35        -3.9000   -6.6220    0.5530 hc        1 MOL      0.122878
     83 N9         -0.2760   -3.5520    2.1070 n         1 MOL     -0.444554
     84 C26         0.8990   -2.7770    2.0620 c3        1 MOL      0.078187
     85 C27         1.7450   -3.0920    0.7530 c         1 MOL      0.620809
     86 O15         2.1630   -4.2500    0.5670 o         1 MOL     -0.608135
     87 C28         1.7070   -2.8310    3.3670 c3        1 MOL     -0.112170
     88 C29         1.1340   -1.8430    4.3760 c3        1 MOL      0.364196
     89 C30         3.1720   -2.6580    3.2370 c3        1 MOL     -0.093560
     90 C31         1.5680   -1.9260    5.8310 c3        1 MOL     -0.312359
     91 H36        -0.1630   -4.4820    2.4740 hn        1 MOL      0.262607
     92 H37         0.6800   -1.7130    2.0040 h1        1 MOL      0.096562
     93 H38         1.5000   -3.7690    3.8810 hc        1 MOL      0.017912
     94 H39         0.0520   -1.9880    4.4080 hc        1 MOL     -0.095752
     95 H40         1.3060   -0.8750    3.9040 hc        1 MOL     -0.095752
     96 H41         3.3120   -1.7830    2.5890 hc        1 MOL      0.009765
     97 H42         3.8200   -2.5270    4.0980 hc        1 MOL      0.009765
     98 H43         3.5470   -3.4540    2.5960 hc        1 MOL      0.009765
     99 H44         2.5630   -1.4840    5.8050 hc        1 MOL      0.063655
    100 H45         0.9600   -1.2290    6.4170 hc        1 MOL      0.063655
    101 H46         1.4440   -2.9690    6.1180 hc        1 MOL      0.063655
    102 N10         1.9040   -2.1160   -0.1020 n         1 MOL     -0.299559
    103 C32         2.6600   -1.9920   -1.3360 c3        1 MOL     -0.030256
    104 C33         4.0550   -1.6060   -0.9700 c         1 MOL      0.558461
    105 O16         4.2790   -1.1550    0.1630 o         1 MOL     -0.413120
    106 C34         1.9180   -0.9640   -2.2820 c3        1 MOL     -0.223755
    107 C35         0.4200   -1.3420   -2.4390 c         1 MOL      0.692326
    108 O17        -0.4530   -0.9500   -1.5820 o         1 MOL     -0.641608
    109 O18         0.0730   -1.9560   -3.4720 o         1 MOL     -0.641608
    110 H47         1.4250   -1.2730    0.2030 hn        1 MOL      0.169074
    111 H48         2.7710   -2.9700   -1.7940 h1        1 MOL      0.081754
    112 H49         2.4060   -0.9030   -3.2550 hc        1 MOL      0.075438
    113 H50         1.9850    0.0170   -1.8070 hc        1 MOL      0.075438
    114 N11         5.0080   -1.6380   -1.8860 n         1 MOL     -0.764992
    115 C36         6.4590   -1.3130   -1.5770 c3        1 MOL      0.691689
    116 C37         6.7460    0.0830   -1.0570 c         1 MOL      0.039920
    117 O19         7.3800    0.1680   -0.0590 o         1 MOL     -0.413789
    118 C38         7.4210   -1.8320   -2.6150 c3        1 MOL     -0.514747
    119 C39         8.9070   -1.6770   -2.2700 ca        1 MOL      0.317925
    120 C40         9.4580   -2.4520   -1.2080 ca        1 MOL     -0.232923
    121 C41         9.7830   -1.1090   -3.2020 ca        1 MOL     -0.232923
    122 C42        10.8570   -2.4140   -0.9200 ca        1 MOL     -0.125187
    123 C43        11.1910   -1.0680   -2.8860 ca        1 MOL     -0.125187
    124 C44        11.6990   -1.6260   -1.7230 ca        1 MOL     -0.104809
    125 H51         4.8460   -2.3330   -2.6000 hn        1 MOL      0.348254
    126 H52         6.6130   -1.9500   -0.7020 h1        1 MOL     -0.000714
    127 H53         7.2400   -1.3770   -3.5900 hc        1 MOL      0.116755
    128 H54         7.2850   -2.9100   -2.6010 hc        1 MOL      0.116755
    129 H55         8.8210   -3.0750   -0.5970 ha        1 MOL      0.137053
    130 H56         9.4490   -0.5990   -4.0940 ha        1 MOL      0.137053
    131 H57        11.1640   -2.9200   -0.0190 ha        1 MOL      0.118339
    132 H58        11.8570   -0.4380   -3.4580 ha        1 MOL      0.118339
    133 H59        12.7310   -1.5260   -1.4330 ha        1 MOL      0.103936
    134 N12         6.2300    1.2170   -1.6770 n         1 MOL      0.005326
    135 C45         6.2990    2.5930   -1.1510 c3        1 MOL      0.035784
    136 C46         5.6030    2.7740    0.2140 c         1 MOL      0.201721
    137 O20         6.1500    3.4740    1.1340 o         1 MOL     -0.490081
    138 C47         5.8250    3.5500   -2.2110 c3        1 MOL     -0.063642
    139 C48         5.8330    2.7350   -3.5170 c3        1 MOL     -0.028241
    140 C49         5.5600    1.3480   -2.9810 c3        1 MOL     -0.048867
    141 H60         7.3300    2.8480   -0.9030 h1        1 MOL      0.079336
    142 H61         4.8120    3.9120   -2.0350 hc        1 MOL      0.045026
    143 H62         6.4960    4.3900   -2.3940 hc        1 MOL      0.045026
    144 H63         5.0670    3.0150   -4.2430 hc        1 MOL      0.027141
    145 H64         6.8390    2.7050   -3.9380 hc        1 MOL      0.027141
    146 H65         4.5120    1.1860   -2.7500 h1        1 MOL      0.046008
    147 H66         5.8550    0.6100   -3.7270 h1        1 MOL      0.046008
    148 N13         4.5630    2.0020    0.5700 n         1 MOL      0.028267
    149 C50         3.8590    2.0000    1.8670 c3        1 MOL     -0.265473
    150 C51         4.7020    1.2720    2.9300 c         1 MOL      0.461650
    151 O21         4.9040    1.7270    4.0630 o         1 MOL     -0.577004
    152 C52         2.5250    1.3470    1.6790 c3        1 MOL      0.050143
    153 C53         1.7310    2.0690    0.6520 c3        1 MOL     -0.260842
    154 C54         0.3390    1.4590    0.6080 c         1 MOL      0.688237
    155 O22         0.0700    0.3710    1.1530 o         1 MOL     -0.736998
    156 O23        -0.5720    2.0950    0.0110 o         1 MOL     -0.736998
    157 H67         4.1810    1.4410   -0.1800 hn        1 MOL      0.151405
    158 H68         3.7690    3.0400    2.1600 h1        1 MOL      0.151830
    159 H69         1.9900    1.4670    2.6230 hc        1 MOL      0.068203
    160 H70         2.5790    0.2620    1.5890 hc        1 MOL      0.068203
    161 H71         2.1100    2.0360   -0.3670 hc        1 MOL      0.095129
    162 H72         1.6630    3.1000    1.0130 hc        1 MOL      0.095129
    163 N14         5.2550    0.1540    2.5700 n         1 MOL      0.056269
    164 C55         6.2640   -0.5810    3.3010 c3        1 MOL     -0.262588
    165 H73         5.7910   -1.1450    4.1040 h1        1 MOL      0.090346
    166 H74         6.7740   -1.2680    2.6260 h1        1 MOL      0.090346
    167 H75         6.9880    0.1170    3.7240 h1        1 MOL      0.090346
    168 H76         4.9840   -0.1650    1.6530 hn        1 MOL      0.050991
    169 Ca1        -2.2190    0.0410   -0.1420 Ca        1 MOL      1.592048
    170 O24        -4.5180   -0.6520    1.3010 oh        1 MOL     -0.695078
    171 H77        -5.0850    0.1210    1.3240 ho        1 MOL      0.351933
    172 H78        -4.0570   -0.6360    2.1430 ho        1 MOL      0.351933
    173 O25        -2.1040   -0.0090    2.6720 oh        1 MOL     -0.695078
    174 H79        -2.1580    0.0980    3.6220 ho        1 MOL      0.351933
    175 H80        -1.1640   -0.0760    2.4970 ho        1 MOL      0.351933
@<TRIPOS>BOND
     1    1    2 1   
     2    1    4 1   
     3    1    5 1   
     4    1    6 1   
     5    2    3 2   
     6    2    7 1   
     7    7    8 1   
     8    7   15 1   
     9    8    9 1   
    10    8   11 1   
    11    8   16 1   
    12    9   10 2   
    13    9   19 1   
    14   11   12 1   
    15   11   17 1   
    16   11   18 1   
    17   12   13 1   
    18   12   14 1   
    19   19   20 1   
    20   19   24 1   
    21   20   21 1   
    22   20   23 1   
    23   20   25 1   
    24   21   22 2   
    25   21   29 1   
    26   23   26 1   
    27   23   27 1   
    28   23   28 1   
    29   29   30 1   
    30   29   37 1   
    31   30   31 1   
    32   30   33 1   
    33   30   38 1   
    34   31   32 2   
    35   31   41 1   
    36   33   34 1   
    37   33   39 1   
    38   33   40 1   
    39   34   35 1   
    40   34   36 1   
    41   41   42 1   
    42   41   45 1   
    43   42   43 1   
    44   42   46 1   
    45   42   47 1   
    46   43   44 2   
    47   43   48 1   
    48   48   49 1   
    49   48   56 1   
    50   49   50 1   
    51   49   52 1   
    52   49   57 1   
    53   50   51 2   
    54   50   62 1   
    55   52   53 1   
    56   52   58 1   
    57   52   59 1   
    58   53   54 1   
    59   53   55 2   
    60   54   60 1   
    61   54   61 1   
    62   62   63 1   
    63   62   66 1   
    64   63   64 1   
    65   63   67 1   
    66   63   68 1   
    67   64   65 2   
    68   64   69 1   
    69   69   70 1   
    70   69   76 1   
    71   70   71 1   
    72   70   73 1   
    73   70   77 1   
    74   71   72 2   
    75   71   83 1   
    76   73   74 1   
    77   73   75 1   
    78   73   78 1   
    79   74   80 1   
    80   74   81 1   
    81   74   82 1   
    82   75   79 1   
    83   83   84 1   
    84   83   91 1   
    85   84   85 1   
    86   84   87 1   
    87   84   92 1   
    88   85   86 2   
    89   85  102 1   
    90   87   88 1   
    91   87   89 1   
    92   87   93 1   
    93   88   90 1   
    94   88   94 1   
    95   88   95 1   
    96   89   96 1   
    97   89   97 1   
    98   89   98 1   
    99   90   99 1   
   100   90  100 1   
   101   90  101 1   
   102  102  103 1   
   103  102  110 1   
   104  103  104 1   
   105  103  106 1   
   106  103  111 1   
   107  104  105 2   
   108  104  114 1   
   109  106  107 1   
   110  106  112 1   
   111  106  113 1   
   112  107  108 1   
   113  107  109 1   
   114  114  115 1   
   115  114  125 1   
   116  115  116 1   
   117  115  118 1   
   118  115  126 1   
   119  116  117 2   
   120  116  134 1   
   121  118  119 1   
   122  118  127 1   
   123  118  128 1   
   124  119  120 ar  
   125  119  121 ar  
   126  120  122 ar  
   127  120  129 1   
   128  121  123 ar  
   129  121  130 1   
   130  122  124 ar  
   131  122  131 1   
   132  123  124 ar  
   133  123  132 1   
   134  124  133 1   
   135  134  135 1   
   136  134  140 1   
   137  135  136 1   
   138  135  138 1   
   139  135  141 1   
   140  136  137 2   
   141  136  148 1   
   142  138  139 1   
   143  138  142 1   
   144  138  143 1   
   145  139  140 1   
   146  139  144 1   
   147  139  145 1   
   148  140  146 1   
   149  140  147 1   
   150  148  149 1   
   151  148  157 1   
   152  149  150 1   
   153  149  152 1   
   154  149  158 1   
   155  150  151 2   
   156  150  163 1   
   157  152  153 1   
   158  152  159 1   
   159  152  160 1   
   160  153  154 1   
   161  153  161 1   
   162  153  162 1   
   163  154  155 1   
   164  154  156 1   
   165  163  164 1   
   166  163  168 1   
   167  164  165 1   
   168  164  166 1   
   169  164  167 1   
   170  170  171 1   
   171  170  172 1   
   172  173  174 1   
   173  173  175 1   
@<TRIPOS>SUBSTRUCTURE
     1 MOL         1 TEMP              0 ****  ****    0 ROOT
