@<TRIPOS>MOLECULE
MOL
  176   174     1     0     0
SMALL
resp


@<TRIPOS>ATOM
      1 C1          1.0770    3.1360    5.8320 c3        1 MOL     -0.275653
      2 C2          0.5040    2.6960    4.4610 c         1 MOL      0.709907
      3 O1          1.2760    2.5830    3.5230 o         1 MOL     -0.614303
      4 H1          1.0710    4.2250    5.8960 hc        1 MOL      0.072462
      5 H2          0.4630    2.7230    6.6320 hc        1 MOL      0.072462
      6 H3          2.1000    2.7720    5.9330 hc        1 MOL      0.072462
      7 N1         -0.7700    2.4210    4.3180 n         1 MOL     -0.600425
      8 C3         -1.4830    2.0740    3.0920 c3        1 MOL      0.021374
      9 C4         -1.7760    3.4010    2.2710 c         1 MOL      0.539351
     10 O2         -2.7910    4.1000    2.3590 o         1 MOL     -0.520977
     11 C5         -2.7950    1.3000    3.3450 c3        1 MOL     -0.039881
     12 C6         -3.3690    0.6880    2.0710 c         1 MOL      0.610372
     13 O3         -4.5290    0.2810    2.1300 o         1 MOL     -0.646758
     14 O4         -2.6900    0.7400    1.0170 o         1 MOL     -0.646758
     15 H4         -1.3900    2.5930    5.0970 hn        1 MOL      0.322283
     16 H5         -0.8370    1.4770    2.4470 h1        1 MOL      0.063462
     17 H6         -3.6060    1.8660    3.8060 hc        1 MOL      0.030616
     18 H7         -2.6090    0.4530    4.0200 hc        1 MOL      0.030616
     19 N2         -0.7800    3.7900    1.4940 n         1 MOL     -0.295509
     20 C7         -0.5530    5.0760    0.7630 c3        1 MOL     -0.058784
     21 C8         -1.7750    5.4010   -0.0960 c         1 MOL      0.457133
     22 O5         -2.3590    6.4930    0.0030 o         1 MOL     -0.546609
     23 C9          0.7180    4.8010   -0.0830 c3        1 MOL      0.023531
     24 C10         1.1770    6.1080   -0.7660 c3        1 MOL     -0.353277
     25 C11         2.3550    5.7720   -1.7480 c3        1 MOL      0.294571
     26 C12         2.9580    6.9710   -2.4990 c3        1 MOL     -0.040723
     27 N3          4.0630    6.4910   -3.3370 n4        1 MOL     -0.253620
     28 H8          0.0160    3.1710    1.4260 hn        1 MOL      0.248687
     29 H9         -0.3150    5.8500    1.4980 h1        1 MOL      0.095934
     30 H10         0.5220    4.0520   -0.8460 hc        1 MOL      0.066783
     31 H11         1.5430    4.3930    0.5140 hc        1 MOL      0.066783
     32 H12         1.5050    6.7770    0.0330 hc        1 MOL      0.100998
     33 H13         0.4000    6.6050   -1.3550 hc        1 MOL      0.100998
     34 H14         1.9570    5.0520   -2.4700 hc        1 MOL     -0.061011
     35 H15         3.1220    5.1760   -1.2480 hc        1 MOL     -0.061011
     36 H16         3.2430    7.6990   -1.7380 hx        1 MOL      0.084811
     37 H17         2.1410    7.3400   -3.1070 hx        1 MOL      0.084811
     38 H18         3.7740    6.4370   -4.2970 hn        1 MOL      0.303854
     39 H19         4.9150    7.0380   -3.3140 hn        1 MOL      0.303854
     40 H20         4.3430    5.5470   -3.1170 hn        1 MOL      0.303854
     41 N4         -2.1480    4.4380   -0.9040 n         1 MOL     -0.196896
     42 C13        -3.2620    4.5830   -1.8370 c3        1 MOL     -0.107580
     43 C14        -4.6490    4.1360   -1.2870 c         1 MOL      0.456030
     44 O6         -5.6300    4.4650   -1.8760 o         1 MOL     -0.496806
     45 C15        -2.8680    3.9010   -3.0950 c3        1 MOL     -0.115331
     46 C16        -2.3410    2.4370   -2.8970 c         1 MOL      0.701335
     47 O7         -3.1860    1.5100   -2.6190 o         1 MOL     -0.754084
     48 O8         -1.1390    2.2820   -2.7130 o         1 MOL     -0.754084
     49 H21        -1.6630    3.5630   -0.8260 hn        1 MOL      0.200289
     50 H22        -3.3440    5.6300   -2.1530 h1        1 MOL      0.122757
     51 H23        -2.0770    4.4420   -3.6010 hc        1 MOL      0.038092
     52 H24        -3.6830    3.8540   -3.8220 hc        1 MOL      0.038092
     53 N5         -4.7710    3.3940   -0.1560 n         1 MOL      0.051008
     54 C17        -6.0480    3.0260    0.4290 c3        1 MOL     -0.376070
     55 C18        -6.7690    1.8960   -0.4040 c         1 MOL      0.546506
     56 O9         -7.7860    2.0960   -1.0200 o         1 MOL     -0.533677
     57 H25        -3.9570    3.1770    0.4170 hn        1 MOL      0.039274
     58 H26        -6.6940    3.9000    0.4820 h1        1 MOL      0.151011
     59 H27        -5.7970    2.6520    1.4260 h1        1 MOL      0.151011
     60 N6         -6.1480    0.7070   -0.4950 n         1 MOL     -0.007606
     61 C19        -6.7480   -0.4760   -1.1150 c3        1 MOL     -0.131783
     62 C20        -6.8000   -1.7190   -0.1610 c         1 MOL      0.458094
     63 O10        -7.4480   -2.7950   -0.4310 o         1 MOL     -0.516136
     64 C21        -5.9240   -0.7480   -2.4010 c3        1 MOL     -0.168396
     65 C22        -4.5430   -1.4290   -2.0770 c         1 MOL      0.593364
     66 N7         -4.0740   -2.1630   -3.0200 n         1 MOL     -0.598807
     67 O11        -3.8940   -1.1670   -1.1060 o         1 MOL     -0.613004
     68 H28        -5.3710    0.5310    0.1290 hn        1 MOL     -0.128120
     69 H29        -7.7120   -0.1660   -1.5120 h1        1 MOL      0.118979
     70 H30        -5.7740    0.2040   -2.9260 hc        1 MOL      0.084463
     71 H31        -6.4400   -1.4360   -3.0690 hc        1 MOL      0.084463
     72 H32        -4.6380   -2.4880   -3.7970 hn        1 MOL      0.306757
     73 H33        -3.1370   -2.4650   -2.7930 hn        1 MOL      0.306757
     74 N8         -6.3620   -1.4970    1.0850 n         1 MOL     -0.374432
     75 C23        -6.3940   -2.4050    2.2010 c3        1 MOL      0.112757
     76 C24        -5.0490   -3.1470    2.5290 c         1 MOL      0.362880
     77 O12        -4.9650   -3.8530    3.5610 o         1 MOL     -0.529149
     78 H34        -5.8280   -0.6540    1.2470 hn        1 MOL      0.302208
     79 H35        -7.2200   -3.1160    2.1110 h1        1 MOL      0.057006
     80 H36        -6.7120   -1.9380    3.1380 h1        1 MOL      0.057006
     81 N9         -3.9470   -2.9190    1.7200 n         1 MOL     -0.142574
     82 C25        -2.6240   -3.6480    1.7600 c3        1 MOL     -0.066822
     83 C26        -1.3950   -2.8850    1.2360 c         1 MOL      0.455634
     84 O13        -1.4690   -1.9790    0.4140 o         1 MOL     -0.525947
     85 C27        -2.7830   -5.0790    1.1820 c3        1 MOL     -0.219313
     86 C28        -3.0370   -5.1920   -0.3700 ca        1 MOL      0.113244
     87 C29        -1.9990   -5.5470   -1.2640 ca        1 MOL     -0.190342
     88 C30        -4.3600   -5.1020   -0.9290 ca        1 MOL     -0.190342
     89 C31        -2.1940   -5.6420   -2.6430 ca        1 MOL     -0.216869
     90 C32        -4.5720   -5.3680   -2.3040 ca        1 MOL     -0.216869
     91 C33        -3.4600   -5.6060   -3.0980 ca        1 MOL      0.278226
     92 O14        -3.7400   -5.7780   -4.4050 oh        1 MOL     -0.441255
     93 H37        -3.9970   -2.1640    1.0620 hn        1 MOL      0.260560
     94 H38        -2.3740   -3.8580    2.7910 h1        1 MOL      0.084576
     95 H39        -3.6510   -5.6030    1.5930 hc        1 MOL      0.101724
     96 H40        -1.8880   -5.6790    1.3330 hc        1 MOL      0.101724
     97 H41        -1.0260   -5.6320   -0.8040 ha        1 MOL      0.142325
     98 H42        -5.2220   -4.8930   -0.3000 ha        1 MOL      0.142325
     99 H43        -1.3600   -5.7880   -3.3260 ha        1 MOL      0.134566
    100 H44        -5.5620   -5.3600   -2.7440 ha        1 MOL      0.134566
    101 H45        -2.9340   -5.8260   -4.9130 ho        1 MOL      0.317291
    102 N10        -0.2170   -3.3130    1.7160 n         1 MOL     -0.375203
    103 C34         1.1020   -2.7290    1.4150 c3        1 MOL     -0.165162
    104 C35         2.0530   -3.6710    0.6950 c         1 MOL      0.652148
    105 O15         1.8420   -4.8970    0.8440 o         1 MOL     -0.557707
    106 C36         1.7330   -1.9440    2.5780 c3        1 MOL      0.308905
    107 C37         1.9480   -2.9640    3.7570 c3        1 MOL     -0.114015
    108 C38         0.8750   -0.8270    3.1010 c3        1 MOL      0.015930
    109 C39         2.5400   -2.4170    5.0570 c3        1 MOL     -0.040147
    110 H46        -0.2890   -4.0130    2.4550 hn        1 MOL      0.297279
    111 H47         1.0200   -1.8790    0.7410 h1        1 MOL      0.123250
    112 H48         2.6980   -1.5190    2.3060 hc        1 MOL     -0.112064
    113 H49         2.5620   -3.7370    3.2850 hc        1 MOL      0.015196
    114 H50         0.9700   -3.3830    3.9730 hc        1 MOL      0.015196
    115 H51         0.5120   -0.1910    2.2870 hc        1 MOL      0.007495
    116 H52        -0.0000   -1.2620    3.5940 hc        1 MOL      0.007495
    117 H53         1.3800   -0.2450    3.8700 hc        1 MOL      0.007495
    118 H54         2.6490   -3.2110    5.7920 hc        1 MOL      0.013155
    119 H55         3.5090   -1.9650    4.8280 hc        1 MOL      0.013155
    120 H56         1.9020   -1.6320    5.4760 hc        1 MOL      0.013155
    121 N11         3.0590   -3.1550   -0.0810 n         1 MOL     -0.498068
    122 C40         4.2770   -3.9160   -0.4610 c3        1 MOL     -0.133219
    123 C41         5.5310   -3.0960   -0.0260 c         1 MOL      0.642485
    124 O16         5.4270   -1.9940    0.6000 o         1 MOL     -0.494659
    125 C42         4.2580   -4.3580   -1.9790 c3        1 MOL      0.207459
    126 O17         4.3430   -3.2610   -2.8340 oh        1 MOL     -0.612076
    127 H57         3.1560   -2.1630    0.1090 hn        1 MOL      0.295740
    128 H58         4.4350   -4.8170    0.1380 h1        1 MOL      0.096932
    129 H59         3.3730   -4.9270   -2.2540 h1        1 MOL      0.041626
    130 H60         5.0580   -5.0510   -2.2060 h1        1 MOL      0.041626
    131 H61         3.5320   -2.7340   -2.8010 ho        1 MOL      0.417193
    132 N12         6.7360   -3.5010   -0.3160 n         1 MOL     -0.531680
    133 C43         8.0020   -2.8130    0.1430 c3        1 MOL      0.161752
    134 C44         8.4300   -1.4020   -0.3920 c         1 MOL      0.364999
    135 O18         8.7240   -0.5120    0.4440 o         1 MOL     -0.490804
    136 C45         9.1940   -3.7840   -0.0280 c3        1 MOL     -0.332152
    137 H62         6.7830   -4.3620   -0.8520 hn        1 MOL      0.297361
    138 H63         7.7570   -2.6410    1.1890 h1        1 MOL      0.091059
    139 H64         9.4590   -3.9830   -1.0680 hc        1 MOL      0.107060
    140 H65        10.0530   -3.5420    0.5870 hc        1 MOL      0.107060
    141 H66         8.9620   -4.7360    0.4490 hc        1 MOL      0.107060
    142 N13         8.2540   -1.1400   -1.6630 n         1 MOL     -0.349651
    143 C46         8.4180    0.2430   -2.0750 c3        1 MOL      0.031033
    144 C47         7.2740    1.2090   -1.5430 c         1 MOL      0.407443
    145 O19         7.4910    2.4040   -1.4580 o         1 MOL     -0.506757
    146 C48         8.7780    0.3350   -3.5830 c3        1 MOL     -0.215647
    147 H67         7.9740   -1.8810   -2.2880 hn        1 MOL      0.301005
    148 H68         9.3620    0.5360   -1.5980 h1        1 MOL      0.138252
    149 H69         9.6230   -0.3050   -3.7960 hc        1 MOL      0.066410
    150 H70         8.0450   -0.0460   -4.2940 hc        1 MOL      0.066410
    151 H71         9.0170    1.3840   -3.7950 hc        1 MOL      0.066410
    152 N14         6.1690    0.6580   -1.0420 n         1 MOL     -0.178195
    153 C49         5.0640    1.4520   -0.4270 c3        1 MOL     -0.122209
    154 C50         5.4190    1.7000    1.0720 c         1 MOL      0.496074
    155 O20         5.3260    2.8210    1.6060 o         1 MOL     -0.538548
    156 C51         3.6980    0.6460   -0.5050 c3        1 MOL     -0.143170
    157 C52         2.5130    1.6350   -0.1680 c3        1 MOL     -0.049320
    158 C53         1.1510    1.0330   -0.5500 c         1 MOL      0.758879
    159 O21         0.1400    1.5490   -0.0890 o         1 MOL     -0.825534
    160 O22         1.0270   -0.0950   -1.0560 o         1 MOL     -0.825534
    161 H72         5.8760   -0.2890   -1.2390 hn        1 MOL      0.137453
    162 H73         5.0000    2.3830   -1.0020 h1        1 MOL      0.082732
    163 H74         3.7250   -0.1550    0.2320 hc        1 MOL      0.058369
    164 H75         3.5870    0.2170   -1.5010 hc        1 MOL      0.058369
    165 H76         2.7510    2.5550   -0.7060 hc        1 MOL      0.059315
    166 H77         2.6040    1.8610    0.8970 hc        1 MOL      0.059315
    167 N15         6.0060    0.6310    1.7130 n         1 MOL     -0.161701
    168 C54         6.6100    0.7720    3.0860 c3        1 MOL     -0.122554
    169 H78         6.6280    1.8250    3.3690 h1        1 MOL      0.072849
    170 H79         6.0120    0.2140    3.8060 h1        1 MOL      0.072849
    171 H80         7.6280    0.3830    3.0780 h1        1 MOL      0.072849
    172 H81         6.0390   -0.2850    1.2750 hn        1 MOL      0.190476
    173 Ca1        -1.6100    0.1500   -1.2050 Ca        1 MOL      1.800575
    174 O23        -1.1790   -1.5910   -3.2290 oh        1 MOL     -0.914391
    175 H82        -0.6170   -2.3690   -3.1510 ho        1 MOL      0.441279
    176 H83        -1.1440   -1.3770   -4.1640 ho        1 MOL      0.441279
@<TRIPOS>BOND
     1    1    2 1   
     2    1    4 1   
     3    1    5 1   
     4    1    6 1   
     5    2    3 2   
     6    2    7 1   
     7    7    8 1   
     8    7   15 1   
     9    8    9 1   
    10    8   11 1   
    11    8   16 1   
    12    9   10 2   
    13    9   19 1   
    14   11   12 1   
    15   11   17 1   
    16   11   18 1   
    17   12   13 1   
    18   12   14 1   
    19   19   20 1   
    20   19   28 1   
    21   20   21 1   
    22   20   23 1   
    23   20   29 1   
    24   21   22 2   
    25   21   41 1   
    26   23   24 1   
    27   23   30 1   
    28   23   31 1   
    29   24   25 1   
    30   24   32 1   
    31   24   33 1   
    32   25   26 1   
    33   25   34 1   
    34   25   35 1   
    35   26   27 1   
    36   26   36 1   
    37   26   37 1   
    38   27   38 1   
    39   27   39 1   
    40   27   40 1   
    41   41   42 1   
    42   41   49 1   
    43   42   43 1   
    44   42   45 1   
    45   42   50 1   
    46   43   44 2   
    47   43   53 1   
    48   45   46 1   
    49   45   51 1   
    50   45   52 1   
    51   46   47 1   
    52   46   48 1   
    53   53   54 1   
    54   53   57 1   
    55   54   55 1   
    56   54   58 1   
    57   54   59 1   
    58   55   56 2   
    59   55   60 1   
    60   60   61 1   
    61   60   68 1   
    62   61   62 1   
    63   61   64 1   
    64   61   69 1   
    65   62   63 2   
    66   62   74 1   
    67   64   65 1   
    68   64   70 1   
    69   64   71 1   
    70   65   66 1   
    71   65   67 2   
    72   66   72 1   
    73   66   73 1   
    74   74   75 1   
    75   74   78 1   
    76   75   76 1   
    77   75   79 1   
    78   75   80 1   
    79   76   77 2   
    80   76   81 1   
    81   81   82 1   
    82   81   93 1   
    83   82   83 1   
    84   82   85 1   
    85   82   94 1   
    86   83   84 2   
    87   83  102 1   
    88   85   86 1   
    89   85   95 1   
    90   85   96 1   
    91   86   87 ar  
    92   86   88 ar  
    93   87   89 ar  
    94   87   97 1   
    95   88   90 ar  
    96   88   98 1   
    97   89   91 ar  
    98   89   99 1   
    99   90   91 ar  
   100   90  100 1   
   101   91   92 1   
   102   92  101 1   
   103  102  103 1   
   104  102  110 1   
   105  103  104 1   
   106  103  106 1   
   107  103  111 1   
   108  104  105 2   
   109  104  121 1   
   110  106  107 1   
   111  106  108 1   
   112  106  112 1   
   113  107  109 1   
   114  107  113 1   
   115  107  114 1   
   116  108  115 1   
   117  108  116 1   
   118  108  117 1   
   119  109  118 1   
   120  109  119 1   
   121  109  120 1   
   122  121  122 1   
   123  121  127 1   
   124  122  123 1   
   125  122  125 1   
   126  122  128 1   
   127  123  124 2   
   128  123  132 1   
   129  125  126 1   
   130  125  129 1   
   131  125  130 1   
   132  126  131 1   
   133  132  133 1   
   134  132  137 1   
   135  133  134 1   
   136  133  136 1   
   137  133  138 1   
   138  134  135 2   
   139  134  142 1   
   140  136  139 1   
   141  136  140 1   
   142  136  141 1   
   143  142  143 1   
   144  142  147 1   
   145  143  144 1   
   146  143  146 1   
   147  143  148 1   
   148  144  145 2   
   149  144  152 1   
   150  146  149 1   
   151  146  150 1   
   152  146  151 1   
   153  152  153 1   
   154  152  161 1   
   155  153  154 1   
   156  153  156 1   
   157  153  162 1   
   158  154  155 2   
   159  154  167 1   
   160  156  157 1   
   161  156  163 1   
   162  156  164 1   
   163  157  158 1   
   164  157  165 1   
   165  157  166 1   
   166  158  159 1   
   167  158  160 1   
   168  167  168 1   
   169  167  172 1   
   170  168  169 1   
   171  168  170 1   
   172  168  171 1   
   173  174  175 1   
   174  174  176 1   
@<TRIPOS>SUBSTRUCTURE
     1 MOL         1 TEMP              0 ****  ****    0 ROOT
