@<TRIPOS>MOLECULE
MOL
  186   183     1     0     0
SMALL
resp


@<TRIPOS>ATOM
      1 C1         -0.6280   -4.3270    5.3660 c3        1 MOL     -0.176562
      2 C2          0.0470   -4.3360    3.9290 c         1 MOL      0.686657
      3 O1         -0.6690   -4.3710    2.9510 o         1 MOL     -0.572192
      4 H1         -0.5710   -5.3250    5.8000 hc        1 MOL      0.030065
      5 H2         -0.1020   -3.6210    6.0100 hc        1 MOL      0.030065
      6 H3         -1.6730   -4.0290    5.2760 hc        1 MOL      0.030065
      7 N1          1.3200   -4.1150    3.8250 n         1 MOL     -0.625905
      8 C3          2.0210   -3.7060    2.5840 c3        1 MOL      0.251399
      9 C4          2.1400   -4.8330    1.5790 c         1 MOL      0.533523
     10 O2          2.6400   -5.9070    1.9120 o         1 MOL     -0.611497
     11 C5          3.4100   -3.1250    3.0610 c3        1 MOL     -0.075892
     12 C6          4.2860   -2.6610    1.9340 c         1 MOL      0.658947
     13 O3          5.5050   -2.6280    2.0840 o         1 MOL     -0.667134
     14 O4          3.7480   -2.2090    0.8330 o         1 MOL     -0.667134
     15 H4          1.8960   -4.3360    4.6250 hn        1 MOL      0.290290
     16 H5          1.4450   -2.9460    2.0550 h1        1 MOL      0.050942
     17 H6          3.9740   -3.9190    3.5610 hc        1 MOL     -0.012054
     18 H7          3.1960   -2.3070    3.7500 hc        1 MOL     -0.012054
     19 N2          1.8470   -4.6640    0.3080 n         1 MOL     -0.380091
     20 C7          1.9400   -5.7520   -0.6840 c3        1 MOL     -0.009610
     21 C8          2.7310   -5.3570   -1.9890 c         1 MOL      0.392320
     22 O5          2.5730   -6.0990   -2.9430 o         1 MOL     -0.529826
     23 C9          0.4870   -6.1200   -1.0560 c3        1 MOL      0.081809
     24 C10        -0.3510   -4.9670   -1.6610 c3        1 MOL      0.221180
     25 C11        -0.1810   -6.7420    0.1660 c3        1 MOL     -0.098103
     26 C12        -1.6560   -5.3400   -2.3420 c3        1 MOL     -0.400914
     27 H8          1.7290   -3.7480   -0.1060 hn        1 MOL      0.266617
     28 H9          2.4120   -6.6550   -0.3040 h1        1 MOL      0.095821
     29 H10         0.5920   -6.7870   -1.9150 hc        1 MOL     -0.034741
     30 H11         0.2400   -4.3960   -2.3760 hc        1 MOL      0.022563
     31 H12        -0.4920   -4.2110   -0.8880 hc        1 MOL      0.022563
     32 H13        -0.4460   -6.0270    0.9440 hc        1 MOL      0.008974
     33 H14        -1.0760   -7.3020   -0.1110 hc        1 MOL      0.008974
     34 H15         0.4500   -7.5390    0.5530 hc        1 MOL      0.008974
     35 H16        -2.0410   -4.5050   -2.9300 hc        1 MOL      0.083072
     36 H17        -1.5070   -6.2230   -2.9590 hc        1 MOL      0.083072
     37 H18        -2.3720   -5.5020   -1.5400 hc        1 MOL      0.083072
     38 N3          3.3670   -4.1900   -2.0360 n         1 MOL     -0.353801
     39 C13         4.0130   -3.6320   -3.2380 c3        1 MOL      0.057890
     40 C14         5.3840   -2.9810   -2.8910 c         1 MOL      0.576930
     41 O6          6.0820   -2.5840   -3.7960 o         1 MOL     -0.567247
     42 C15         2.9970   -2.7900   -3.9480 c3        1 MOL     -0.156414
     43 C16         2.5730   -1.5660   -3.2140 c         1 MOL      0.808670
     44 O7          3.0160   -1.2660   -2.1020 o         1 MOL     -0.752342
     45 O8          1.5380   -0.9590   -3.6480 o         1 MOL     -0.752342
     46 H19         3.4340   -3.6340   -1.1990 hn        1 MOL      0.194975
     47 H20         4.3070   -4.4800   -3.8430 h1        1 MOL      0.054152
     48 H21         2.1450   -3.4400   -4.1320 hc        1 MOL      0.045571
     49 H22         3.4090   -2.4590   -4.9010 hc        1 MOL      0.045571
     50 N4          5.8470   -3.0120   -1.6490 n         1 MOL     -0.409120
     51 C17         7.2240   -2.5270   -1.2720 c3        1 MOL     -0.187612
     52 C18         7.5220   -1.0580   -1.4620 c         1 MOL      0.533095
     53 O9          8.6890   -0.6380   -1.4160 o         1 MOL     -0.634634
     54 H23         5.2560   -3.4670   -0.9720 hn        1 MOL      0.277172
     55 H24         8.0240   -3.0570   -1.7940 h1        1 MOL      0.124312
     56 H25         7.3380   -2.7840   -0.2190 h1        1 MOL      0.124312
     57 N5          6.5290   -0.2520   -1.7790 n         1 MOL     -0.065643
     58 C19         6.6740    1.1740   -2.2340 c3        1 MOL     -0.019908
     59 C20         7.0770    2.2300   -1.2230 c         1 MOL      0.457067
     60 O10         7.2680    3.3570   -1.5990 o         1 MOL     -0.528429
     61 C21         5.4640    1.6010   -3.0820 c3        1 MOL     -0.168418
     62 C22         4.2040    1.8130   -2.2950 c         1 MOL      0.881860
     63 O11         4.1400    1.3860   -1.1210 o         1 MOL     -0.772990
     64 O12         3.1680    2.4300   -2.7880 o         1 MOL     -0.772990
     65 H26         5.6160   -0.6720   -1.6820 hn        1 MOL     -0.019113
     66 H27         7.5430    1.1230   -2.8950 h1        1 MOL      0.092140
     67 H28         5.3150    0.8950   -3.9050 hc        1 MOL      0.043335
     68 H29         5.6850    2.5540   -3.5550 hc        1 MOL      0.043335
     69 N6          7.1840    1.8490    0.0670 n         1 MOL     -0.196679
     70 C23         7.5330    2.7900    1.1980 c3        1 MOL     -0.323974
     71 C24         6.4170    3.7140    1.5820 c         1 MOL      0.597768
     72 O13         6.6090    4.6320    2.3810 o         1 MOL     -0.564868
     73 H30         6.9640    0.8770    0.2590 hn        1 MOL      0.211370
     74 H31         8.4490    3.3600    1.0200 h1        1 MOL      0.149492
     75 H32         7.7510    2.0430    1.9700 h1        1 MOL      0.149492
     76 N7          5.1050    3.4970    1.1260 n         1 MOL     -0.328851
     77 C25         3.9140    4.2320    1.5650 c3        1 MOL     -0.014258
     78 C26         2.6790    3.2770    1.7160 c         1 MOL      0.530876
     79 O14         2.7820    2.1010    1.2570 o         1 MOL     -0.593174
     80 C27         3.5140    5.2290    0.4120 c3        1 MOL      0.017528
     81 C28         4.7130    6.1910    0.1140 c3        1 MOL     -0.421661
     82 C29         4.2250    7.2920   -0.7690 c         1 MOL      0.712406
     83 N8          4.3650    7.1690   -2.0530 n         1 MOL     -0.786807
     84 O15         3.7030    8.3540   -0.4090 o         1 MOL     -0.611227
     85 H33         5.0030    2.8210    0.3850 hn        1 MOL      0.181560
     86 H34         4.1360    4.7060    2.5240 h1        1 MOL      0.081580
     87 H35         2.5950    5.7790    0.6190 hc        1 MOL      0.068885
     88 H36         3.3000    4.5730   -0.4280 hc        1 MOL      0.068885
     89 H37         5.4600    5.5680   -0.3780 hc        1 MOL      0.141503
     90 H38         5.0400    6.6430    1.0500 hc        1 MOL      0.141503
     91 H39         4.9190    6.4320   -2.4660 hn        1 MOL      0.357475
     92 H40         3.9040    7.8170   -2.6800 hn        1 MOL      0.357475
     93 N9          1.5520    3.7380    2.3350 n         1 MOL     -0.666653
     94 C30         0.3350    2.9500    2.4590 c3        1 MOL      0.363414
     95 C31        -0.7020    3.4200    1.3710 c         1 MOL      0.514946
     96 O16        -1.0380    4.5620    1.1370 o         1 MOL     -0.576260
     97 C32        -0.1240    2.8600    3.9240 c3        1 MOL      0.116394
     98 C33        -0.5280    4.2340    4.5090 c3        1 MOL     -0.172854
     99 C34        -1.2830    1.8580    4.1260 c3        1 MOL     -0.172854
    100 H41         1.5470    4.6630    2.7470 hn        1 MOL      0.320320
    101 H42         0.5940    1.9430    2.1300 h1        1 MOL     -0.005396
    102 H43         0.6840    2.3930    4.4860 hc        1 MOL     -0.016334
    103 H44        -0.7940    4.1390    5.5630 hc        1 MOL      0.028257
    104 H45         0.2970    4.9300    4.4380 hc        1 MOL      0.028257
    105 H46        -1.3180    4.6830    3.9030 hc        1 MOL      0.028257
    106 H47        -2.0890    2.0030    3.3990 hc        1 MOL      0.028257
    107 H48        -0.9550    0.8150    4.1810 hc        1 MOL      0.028257
    108 H49        -1.7580    2.0260    5.0930 hc        1 MOL      0.028257
    109 N10        -1.3040    2.3730    0.7790 n         1 MOL     -0.247382
    110 C35        -2.4340    2.5820   -0.1610 c3        1 MOL      0.029021
    111 C36        -3.7050    2.3620    0.6460 c         1 MOL      0.124182
    112 O17        -3.7770    1.5770    1.5760 o         1 MOL     -0.154976
    113 C37        -2.2480    1.5240   -1.3190 c3        1 MOL     -0.113641
    114 C38        -3.3530    1.5540   -2.2880 c         1 MOL      0.727843
    115 N11        -3.2550    2.5070   -3.1740 n         1 MOL     -0.786521
    116 O18        -4.2480    0.7400   -2.2390 o         1 MOL     -0.578352
    117 H50        -0.8450    1.4720    0.7900 hn        1 MOL      0.124838
    118 H51        -2.4930    3.5760   -0.6050 h1        1 MOL      0.067206
    119 H52        -2.0930    0.5280   -0.9280 hc        1 MOL      0.069809
    120 H53        -1.3160    1.7240   -1.8380 hc        1 MOL      0.069809
    121 H54        -2.5880    3.2550   -3.1020 hn        1 MOL      0.357139
    122 H55        -3.9670    2.5200   -3.8840 hn        1 MOL      0.357139
    123 N12        -4.8360    2.8930    0.1240 n         1 MOL     -0.062190
    124 C39        -6.1300    2.7720    0.7680 c3        1 MOL      0.016662
    125 C40        -6.5960    1.3000    1.0320 c         1 MOL      0.348681
    126 O19        -7.1880    1.0150    2.1050 o         1 MOL     -0.564447
    127 C41        -7.0600    3.6610   -0.0430 c3        1 MOL     -0.157589
    128 C42        -7.4960    3.1890   -1.4000 ca        1 MOL      0.100233
    129 C43        -8.5920    2.3220   -1.5610 ca        1 MOL     -0.248415
    130 C44        -6.6980    3.6180   -2.4940 ca        1 MOL     -0.248415
    131 C45        -8.9160    1.8410   -2.8640 ca        1 MOL     -0.244505
    132 C46        -7.1650    3.2690   -3.8190 ca        1 MOL     -0.244505
    133 C47        -8.1800    2.3270   -3.9910 ca        1 MOL      0.373975
    134 O20        -8.5150    1.9080   -5.2430 oh        1 MOL     -0.549068
    135 H56        -4.8610    3.4660   -0.7010 hn        1 MOL      0.096883
    136 H57        -5.9760    3.2870    1.7120 h1        1 MOL      0.058417
    137 H58        -6.7130    4.6910   -0.0630 hc        1 MOL      0.053840
    138 H59        -8.0160    3.7120    0.4810 hc        1 MOL      0.053840
    139 H60        -9.1850    1.9580   -0.7370 ha        1 MOL      0.172866
    140 H61        -5.8330    4.2410   -2.3510 ha        1 MOL      0.172866
    141 H62        -9.7540    1.1790   -3.0200 ha        1 MOL      0.127024
    142 H63        -6.5370    3.6330   -4.6200 ha        1 MOL      0.127024
    143 H64        -9.1870    1.2290   -5.1720 ho        1 MOL      0.421629
    144 N13        -6.2700    0.3310    0.1700 n         1 MOL     -0.037597
    145 C48        -6.7060   -1.1280    0.3540 c3        1 MOL     -0.038674
    146 C49        -5.7830   -1.9270    1.3500 c         1 MOL      0.335704
    147 O21        -6.2380   -2.8750    1.9940 o         1 MOL     -0.512274
    148 C50        -7.0530   -1.9700   -0.9360 c3        1 MOL     -0.129278
    149 C51        -7.9810   -1.2340   -1.8200 c3        1 MOL     -0.138575
    150 C52        -8.6120   -2.0650   -2.9750 c         1 MOL      0.676877
    151 O22        -7.9010   -3.0210   -3.4130 o         1 MOL     -0.725265
    152 O23        -9.6310   -1.7260   -3.5540 o         1 MOL     -0.725265
    153 H65        -5.7970    0.5280   -0.6950 hn        1 MOL      0.166343
    154 H66        -7.6780   -1.0690    0.8360 h1        1 MOL      0.080320
    155 H67        -7.4900   -2.9100   -0.6160 hc        1 MOL      0.073037
    156 H68        -6.1820   -2.2660   -1.5260 hc        1 MOL      0.073037
    157 H69        -7.4030   -0.4270   -2.2770 hc        1 MOL      0.047933
    158 H70        -8.8100   -0.8540   -1.2210 hc        1 MOL      0.047933
    159 N14        -4.5500   -1.4970    1.5280 n         1 MOL     -0.138078
    160 C53        -3.7280   -1.8250    2.6840 c3        1 MOL     -0.057689
    161 C54        -4.1820   -1.1490    3.9800 c         1 MOL      0.484705
    162 O24        -4.2870   -1.7430    5.0330 o         1 MOL     -0.568528
    163 C55        -2.2640   -1.4530    2.4520 c3        1 MOL      0.056800
    164 C56        -1.7310   -1.9050    1.0600 c3        1 MOL     -0.146411
    165 C57        -0.2690   -1.3590    0.7960 c         1 MOL      0.735909
    166 O25         0.5070   -2.0690    0.0790 o         1 MOL     -0.722206
    167 O26         0.0600   -0.2170    1.1260 o         1 MOL     -0.722206
    168 H71        -4.2320   -0.7890    0.8850 hn        1 MOL      0.089151
    169 H72        -3.7050   -2.9020    2.8850 h1        1 MOL      0.084785
    170 H73        -1.5810   -1.8010    3.2230 hc        1 MOL      0.003289
    171 H74        -2.3220   -0.3650    2.4740 hc        1 MOL      0.003289
    172 H75        -2.3440   -1.6810    0.1930 hc        1 MOL      0.053839
    173 H76        -1.7000   -2.9910    0.9920 hc        1 MOL      0.053839
    174 N15        -4.5510    0.1060    3.8730 n         1 MOL     -0.012316
    175 C58        -4.9200    0.9210    5.0690 c3        1 MOL     -0.290065
    176 H77        -4.9560    1.9750    4.7920 h1        1 MOL      0.095339
    177 H78        -5.8990    0.6090    5.4340 h1        1 MOL      0.095339
    178 H79        -4.1760    0.7770    5.8520 h1        1 MOL      0.095339
    179 H80        -4.2380    0.6880    3.1110 hn        1 MOL      0.018202
    180 Ca1         2.5000   -0.1460    0.1130 Ca        1 MOL      1.771435
    181 O27         2.5280   -0.1990    2.7180 oh        1 MOL     -0.953672
    182 H81         1.9890   -0.3520    3.4880 ho        1 MOL      0.452801
    183 H82         3.1910    0.4180    3.0060 ho        1 MOL      0.452801
    184 O28         1.2050    0.9370   -2.0180 oh        1 MOL     -0.953672
    185 H83         1.1540    0.2720   -2.7040 ho        1 MOL      0.452801
    186 H84         1.8670    1.5520   -2.3390 ho        1 MOL      0.452801
@<TRIPOS>BOND
     1    1    2 1   
     2    1    4 1   
     3    1    5 1   
     4    1    6 1   
     5    2    3 2   
     6    2    7 1   
     7    7    8 1   
     8    7   15 1   
     9    8    9 1   
    10    8   11 1   
    11    8   16 1   
    12    9   10 2   
    13    9   19 1   
    14   11   12 1   
    15   11   17 1   
    16   11   18 1   
    17   12   13 1   
    18   12   14 1   
    19   19   20 1   
    20   19   27 1   
    21   20   21 1   
    22   20   23 1   
    23   20   28 1   
    24   21   22 2   
    25   21   38 1   
    26   23   24 1   
    27   23   25 1   
    28   23   29 1   
    29   24   26 1   
    30   24   30 1   
    31   24   31 1   
    32   25   32 1   
    33   25   33 1   
    34   25   34 1   
    35   26   35 1   
    36   26   36 1   
    37   26   37 1   
    38   38   39 1   
    39   38   46 1   
    40   39   40 1   
    41   39   42 1   
    42   39   47 1   
    43   40   41 2   
    44   40   50 1   
    45   42   43 1   
    46   42   48 1   
    47   42   49 1   
    48   43   44 1   
    49   43   45 1   
    50   50   51 1   
    51   50   54 1   
    52   51   52 1   
    53   51   55 1   
    54   51   56 1   
    55   52   53 2   
    56   52   57 1   
    57   57   58 1   
    58   57   65 1   
    59   58   59 1   
    60   58   61 1   
    61   58   66 1   
    62   59   60 2   
    63   59   69 1   
    64   61   62 1   
    65   61   67 1   
    66   61   68 1   
    67   62   63 1   
    68   62   64 1   
    69   69   70 1   
    70   69   73 1   
    71   70   71 1   
    72   70   74 1   
    73   70   75 1   
    74   71   72 2   
    75   71   76 1   
    76   76   77 1   
    77   76   85 1   
    78   77   78 1   
    79   77   80 1   
    80   77   86 1   
    81   78   79 2   
    82   78   93 1   
    83   80   81 1   
    84   80   87 1   
    85   80   88 1   
    86   81   82 1   
    87   81   89 1   
    88   81   90 1   
    89   82   83 1   
    90   82   84 2   
    91   83   91 1   
    92   83   92 1   
    93   93   94 1   
    94   93  100 1   
    95   94   95 1   
    96   94   97 1   
    97   94  101 1   
    98   95   96 2   
    99   95  109 1   
   100   97   98 1   
   101   97   99 1   
   102   97  102 1   
   103   98  103 1   
   104   98  104 1   
   105   98  105 1   
   106   99  106 1   
   107   99  107 1   
   108   99  108 1   
   109  109  110 1   
   110  109  117 1   
   111  110  111 1   
   112  110  113 1   
   113  110  118 1   
   114  111  112 2   
   115  111  123 1   
   116  113  114 1   
   117  113  119 1   
   118  113  120 1   
   119  114  115 1   
   120  114  116 2   
   121  115  121 1   
   122  115  122 1   
   123  123  124 1   
   124  123  135 1   
   125  124  125 1   
   126  124  127 1   
   127  124  136 1   
   128  125  126 2   
   129  125  144 1   
   130  127  128 1   
   131  127  137 1   
   132  127  138 1   
   133  128  129 ar  
   134  128  130 ar  
   135  129  131 ar  
   136  129  139 1   
   137  130  132 ar  
   138  130  140 1   
   139  131  133 ar  
   140  131  141 1   
   141  132  133 ar  
   142  132  142 1   
   143  133  134 1   
   144  134  143 1   
   145  144  145 1   
   146  144  153 1   
   147  145  146 1   
   148  145  148 1   
   149  145  154 1   
   150  146  147 2   
   151  146  159 1   
   152  148  149 1   
   153  148  155 1   
   154  148  156 1   
   155  149  150 1   
   156  149  157 1   
   157  149  158 1   
   158  150  151 1   
   159  150  152 1   
   160  159  160 1   
   161  159  168 1   
   162  160  161 1   
   163  160  163 1   
   164  160  169 1   
   165  161  162 2   
   166  161  174 1   
   167  163  164 1   
   168  163  170 1   
   169  163  171 1   
   170  164  165 1   
   171  164  172 1   
   172  164  173 1   
   173  165  166 1   
   174  165  167 1   
   175  174  175 1   
   176  174  179 1   
   177  175  176 1   
   178  175  177 1   
   179  175  178 1   
   180  181  182 1   
   181  181  183 1   
   182  184  185 1   
   183  184  186 1   
@<TRIPOS>SUBSTRUCTURE
     1 MOL         1 TEMP              0 ****  ****    0 ROOT
