@<TRIPOS>MOLECULE
MOL
  179   176     1     0     0
SMALL
resp


@<TRIPOS>ATOM
      1 C1          0.6020    4.8980    4.5190 c3        1 MOL     -0.539480
      2 C2          0.1430    4.0760    3.3230 c         1 MOL      0.698438
      3 O1          0.9050    4.0040    2.3620 o         1 MOL     -0.576061
      4 H1          0.5010    5.9590    4.2910 hc        1 MOL      0.138820
      5 H2         -0.0130    4.6530    5.3860 hc        1 MOL      0.138820
      6 H3          1.6460    4.6720    4.7370 hc        1 MOL      0.138820
      7 N1         -1.0720    3.4710    3.3400 n         1 MOL     -0.637613
      8 C3         -1.5040    2.6900    2.1770 c3        1 MOL      0.240265
      9 C4         -2.2440    3.6970    1.3480 c         1 MOL      0.408654
     10 O2         -3.4180    3.6580    1.3710 o         1 MOL     -0.481045
     11 C5         -2.3570    1.4760    2.5420 c3        1 MOL      0.034830
     12 C6         -2.8910    0.8400    1.2200 c         1 MOL      0.774394
     13 O3         -2.2710    1.1420    0.1150 o         1 MOL     -0.793870
     14 O4         -3.8870    0.0780    1.3050 o         1 MOL     -0.793870
     15 H4         -1.6030    3.5280    4.2010 hn        1 MOL      0.340069
     16 H5         -0.6640    2.2760    1.6160 h1        1 MOL     -0.018475
     17 H6         -3.0950    1.7640    3.2880 hc        1 MOL     -0.016972
     18 H7         -1.7070    0.7900    3.0840 hc        1 MOL     -0.016972
     19 N2         -1.6100    4.5410    0.5350 n         1 MOL     -0.364332
     20 C7         -2.1650    5.7890   -0.1290 c3        1 MOL      0.149974
     21 C8         -3.2950    5.6000   -1.1700 c         1 MOL      0.424547
     22 O5         -4.2340    6.3860   -1.1440 o         1 MOL     -0.539980
     23 C9         -0.9970    6.7060   -0.7680 c3        1 MOL     -0.352192
     24 C10         0.0440    7.1730    0.2930 c3        1 MOL      0.090027
     25 C11        -0.3810    8.2910    1.2830 c3        1 MOL     -0.230075
     26 C12         0.8280    8.7370    2.1900 c3        1 MOL      0.182480
     27 N3          0.4890    9.9760    2.9360 n4        1 MOL     -0.492463
     28 H8         -0.6030    4.4880    0.6320 hn        1 MOL      0.298107
     29 H9         -2.6100    6.4090    0.6390 h1        1 MOL      0.042074
     30 H10        -1.4760    7.6090   -1.1280 hc        1 MOL      0.129804
     31 H11        -0.4730    6.1170   -1.5320 hc        1 MOL      0.129804
     32 H12         0.9050    7.6000   -0.2150 hc        1 MOL      0.024900
     33 H13         0.3610    6.3040    0.8690 hc        1 MOL      0.024900
     34 H14        -1.1550    7.8250    1.8880 hc        1 MOL      0.082793
     35 H15        -0.7450    9.1580    0.7420 hc        1 MOL      0.082793
     36 H16         1.7360    8.8860    1.5880 hx        1 MOL      0.057064
     37 H17         1.1800    7.9440    2.8540 hx        1 MOL      0.057064
     38 H18         1.4010   10.3110    3.1980 hn        1 MOL      0.359657
     39 H19         0.0330   10.6410    2.3320 hn        1 MOL      0.359657
     40 H20         0.0100    9.8430    3.8230 hn        1 MOL      0.359657
     41 N4         -3.2530    4.4280   -1.8250 n         1 MOL     -0.246712
     42 C13        -4.2210    4.0600   -2.8540 c3        1 MOL     -0.036822
     43 C14        -5.4170    3.2140   -2.2150 c         1 MOL      0.426387
     44 O6         -6.4750    3.0310   -2.7660 o         1 MOL     -0.541448
     45 C15        -3.5990    3.1430   -3.8900 c3        1 MOL     -0.152994
     46 C16        -2.7380    1.9880   -3.2220 c         1 MOL      0.661893
     47 O7         -1.6340    2.3180   -2.8020 o         1 MOL     -0.707115
     48 O8         -3.1320    0.8030   -3.1460 o         1 MOL     -0.707115
     49 H21        -2.4970    3.7840   -1.6140 hn        1 MOL      0.188246
     50 H22        -4.5820    4.9680   -3.3230 h1        1 MOL      0.113140
     51 H23        -2.9200    3.6460   -4.5700 hc        1 MOL      0.050063
     52 H24        -4.4120    2.8570   -4.5510 hc        1 MOL      0.050063
     53 N5         -5.2720    2.7910   -0.9800 n         1 MOL     -0.011581
     54 C17        -6.3890    2.1910   -0.2210 c3        1 MOL     -0.199144
     55 C18        -6.7540    0.6570   -0.3680 c         1 MOL      0.473093
     56 O9         -7.9200    0.3060   -0.0020 o         1 MOL     -0.601958
     57 H25        -4.4030    2.9000   -0.4930 hn        1 MOL      0.065155
     58 H26        -7.2440    2.8060   -0.5060 h1        1 MOL      0.117583
     59 H27        -6.2480    2.3740    0.8340 h1        1 MOL      0.117583
     60 N6         -5.9960   -0.2390   -0.9520 n         1 MOL     -0.065497
     61 C19        -6.4180   -1.5850   -1.4400 c3        1 MOL     -0.040197
     62 C20        -6.3270   -2.6110   -0.2870 c         1 MOL      0.298565
     63 O10        -6.6500   -3.7580   -0.5360 o         1 MOL     -0.462067
     64 C21        -5.5150   -1.9760   -2.6900 c3        1 MOL     -0.197070
     65 C22        -4.0590   -2.5070   -2.4480 c         1 MOL      0.679011
     66 N7         -3.6110   -3.6930   -2.8890 n         1 MOL     -0.803319
     67 O11        -3.2210   -1.9540   -1.8160 o         1 MOL     -0.557190
     68 H28        -5.1530    0.2120   -1.2780 hn        1 MOL      0.097391
     69 H29        -7.4330   -1.5100   -1.8500 h1        1 MOL      0.142782
     70 H30        -5.3630   -0.9850   -3.1110 hc        1 MOL      0.076047
     71 H31        -6.0540   -2.6220   -3.3810 hc        1 MOL      0.076047
     72 H32        -4.2480   -4.4070   -3.2070 hn        1 MOL      0.364525
     73 H33        -2.6160   -3.8480   -2.8110 hn        1 MOL      0.364525
     74 N8         -5.8740   -2.1760    0.9090 n         1 MOL     -0.138913
     75 C23        -5.7070   -2.8770    2.0870 c3        1 MOL     -0.363427
     76 C24        -4.2210   -3.1780    2.5100 c         1 MOL      0.650123
     77 O12        -4.0030   -3.7800    3.5540 o         1 MOL     -0.581977
     78 H34        -5.6460   -1.1930    0.8850 hn        1 MOL      0.306516
     79 H35        -6.2170   -3.8290    1.8820 h1        1 MOL      0.157440
     80 H36        -6.1660   -2.3650    2.9360 h1        1 MOL      0.157440
     81 N9         -3.2540   -2.8400    1.6550 n         1 MOL     -0.420328
     82 C25        -1.8490   -3.2920    1.6730 c3        1 MOL      0.138806
     83 C26        -0.7030   -2.3720    1.3000 c         1 MOL      0.471211
     84 O13        -0.9330   -1.4660    0.5110 o         1 MOL     -0.620118
     85 C27        -1.7980   -4.5060    0.7100 c3        1 MOL      0.192589
     86 C28        -2.6670   -5.6520    1.0040 ca        1 MOL     -0.063607
     87 C29        -3.9650   -5.6480    0.4130 ca        1 MOL     -0.109813
     88 C30        -2.2790   -6.7440    1.7730 ca        1 MOL     -0.109813
     89 C31        -4.8230   -6.7270    0.7170 ca        1 MOL     -0.306329
     90 C32        -3.1190   -7.8430    2.0340 ca        1 MOL     -0.306329
     91 C33        -4.4400   -7.8090    1.5140 ca        1 MOL      0.419587
     92 O14        -5.2660   -8.8810    1.7340 oh        1 MOL     -0.515881
     93 H37        -3.5270   -2.3370    0.8210 hn        1 MOL      0.310929
     94 H38        -1.6840   -3.7870    2.6350 h1        1 MOL      0.037617
     95 H39        -0.8040   -4.9300    0.8110 hc        1 MOL     -0.063560
     96 H40        -1.9470   -4.1380   -0.3100 hc        1 MOL     -0.063560
     97 H41        -4.3300   -4.9120   -0.2760 ha        1 MOL      0.121115
     98 H42        -1.2570   -6.7690    2.1230 ha        1 MOL      0.121115
     99 H43        -5.7870   -6.7720    0.2520 ha        1 MOL      0.141783
    100 H44        -2.7240   -8.7390    2.4830 ha        1 MOL      0.141783
    101 H45        -4.8070   -9.6090    2.1560 ho        1 MOL      0.365757
    102 N10         0.5150   -2.5870    1.8130 n         1 MOL     -0.476874
    103 C34         1.7240   -1.9600    1.2770 c3        1 MOL      0.066886
    104 C35         2.7190   -3.0140    0.7440 c         1 MOL      0.523540
    105 O15         2.8470   -4.1400    1.3440 o         1 MOL     -0.538448
    106 C36         2.3080   -0.9530    2.3220 c3        1 MOL     -0.002318
    107 C37         2.6290   -1.6310    3.7380 c3        1 MOL     -0.421176
    108 C38         1.2640    0.1690    2.5510 c3        1 MOL     -1.074578
    109 C39         3.7600   -0.9620    4.4400 c3        1 MOL     -0.099663
    110 H46         0.5760   -3.3410    2.4800 hn        1 MOL      0.300156
    111 H47         1.4020   -1.3860    0.4080 h1        1 MOL      0.118881
    112 H48         3.2000   -0.4990    1.8860 hc        1 MOL      0.130178
    113 H49         2.8350   -2.6720    3.4790 hc        1 MOL      0.166658
    114 H50         1.6740   -1.5730    4.2560 hc        1 MOL      0.166658
    115 H51         1.6080    0.7470    3.4020 hc        1 MOL      0.338875
    116 H52         1.2210    0.9110    1.7500 hc        1 MOL      0.338875
    117 H53         0.2980   -0.3020    2.7510 hc        1 MOL      0.338875
    118 H54         4.5910   -0.7090    3.7840 hc        1 MOL      0.043524
    119 H55         3.5860   -0.0140    4.9570 hc        1 MOL      0.043524
    120 H56         4.0730   -1.5690    5.2980 hc        1 MOL      0.043524
    121 N11         3.3520   -2.6860   -0.3680 n         1 MOL     -0.388757
    122 C40         4.5620   -3.3570   -0.9580 c3        1 MOL      0.208784
    123 C41         5.8270   -2.8760   -0.2040 c         1 MOL      0.277280
    124 O16         5.8050   -1.8790    0.5200 o         1 MOL     -0.236607
    125 C42         4.5690   -3.1030   -2.5010 c3        1 MOL     -0.606502
    126 O17         4.8650   -1.7340   -2.7070 oh        1 MOL     -0.265418
    127 H57         3.1380   -1.7890   -0.7830 hn        1 MOL      0.170797
    128 H58         4.4690   -4.4260   -0.8000 h1        1 MOL      0.045841
    129 H59         3.5550   -3.3490   -2.8250 h1        1 MOL      0.239097
    130 H60         5.3490   -3.6830   -2.9800 h1        1 MOL      0.239097
    131 H61         4.9240   -1.7250   -3.6630 ho        1 MOL      0.340307
    132 N12         6.9580   -3.5470   -0.4290 n         1 MOL     -0.359690
    133 C43         8.2450   -2.9680    0.0110 c3        1 MOL      0.065974
    134 C44         8.6110   -1.6380   -0.6770 c         1 MOL      0.505483
    135 O18         9.2850   -0.8520    0.0120 o         1 MOL     -0.543069
    136 C45         9.2510   -3.9900   -0.5540 c3        1 MOL     -0.357798
    137 H62         6.9820   -4.3100   -1.0870 hn        1 MOL      0.267889
    138 H63         8.1780   -2.9370    1.1020 h1        1 MOL      0.112956
    139 H64         8.9610   -4.9740   -0.1850 hc        1 MOL      0.109004
    140 H65         9.2500   -3.9870   -1.6390 hc        1 MOL      0.109004
    141 H66        10.2840   -3.7470   -0.2900 hc        1 MOL      0.109004
    142 N13         8.1330   -1.3040   -1.8680 n         1 MOL     -0.415008
    143 C46         8.3840    0.0840   -2.3820 c3        1 MOL      0.195329
    144 C47         7.5910    1.1140   -1.5730 c         1 MOL      0.208003
    145 O19         7.9970    2.2490   -1.3460 o         1 MOL     -0.450456
    146 C48         7.9790    0.1360   -3.8450 c3        1 MOL     -0.225197
    147 H67         7.6240   -2.0080   -2.3810 hn        1 MOL      0.242287
    148 H68         9.4430    0.3330   -2.3850 h1        1 MOL      0.081992
    149 H69         8.6380   -0.4880   -4.4510 hc        1 MOL      0.055539
    150 H70         6.9490   -0.2040   -3.8680 hc        1 MOL      0.055539
    151 H71         7.9810    1.1720   -4.2030 hc        1 MOL      0.055539
    152 N14         6.3350    0.7120   -1.3030 n         1 MOL     -0.011846
    153 C49         5.4560    1.5530   -0.4620 c3        1 MOL     -0.036637
    154 C50         6.0220    1.6900    1.0170 c         1 MOL      0.381958
    155 O20         6.1380    2.8140    1.4830 o         1 MOL     -0.533720
    156 C51         4.1290    0.8760   -0.3650 c3        1 MOL     -0.017153
    157 C52         3.3310    1.0520   -1.6580 c3        1 MOL     -0.051089
    158 C53         1.9330    0.4550   -1.5610 c         1 MOL      0.789297
    159 O21         1.6560   -0.5790   -2.1130 o         1 MOL     -0.765063
    160 O22         1.0480    1.0720   -0.9640 o         1 MOL     -0.765063
    161 H72         5.9370   -0.0880   -1.7580 hn        1 MOL      0.163778
    162 H73         5.3110    2.5610   -0.8500 h1        1 MOL      0.082796
    163 H74         3.4900    1.3750    0.3670 hc        1 MOL      0.049773
    164 H75         4.2440   -0.2000   -0.1970 hc        1 MOL      0.049773
    165 H76         3.9290    0.6650   -2.4710 hc        1 MOL     -0.040876
    166 H77         3.2540    2.1260   -1.8070 hc        1 MOL     -0.040876
    167 N15         6.6670    0.6510    1.5580 n         1 MOL      0.065457
    168 C54         7.3030    0.7250    2.8900 c3        1 MOL     -0.601191
    169 H78         6.5870    1.1180    3.6110 h1        1 MOL      0.186193
    170 H79         7.6190   -0.2710    3.1980 h1        1 MOL      0.186193
    171 H80         8.1700    1.3840    2.8420 h1        1 MOL      0.186193
    172 H81         6.4740   -0.3000    1.2520 hn        1 MOL      0.068168
    173 Ca1        -1.1100   -0.0850   -1.7660 Ca        1 MOL      1.803410
    174 O23        -0.3260   -0.1720   -4.2660 oh        1 MOL     -0.830691
    175 H82        -0.8620   -0.3370   -5.0360 ho        1 MOL      0.410381
    176 H83         0.5060    0.1730   -4.6200 ho        1 MOL      0.410381
    177 O24        -0.2940   -2.6530   -2.3750 oh        1 MOL     -0.830691
    178 H84         0.6120   -2.3610   -2.4130 ho        1 MOL      0.410381
    179 H85        -0.2380   -3.5960   -2.2450 ho        1 MOL      0.410381
@<TRIPOS>BOND
     1    1    2 1   
     2    1    4 1   
     3    1    5 1   
     4    1    6 1   
     5    2    3 2   
     6    2    7 1   
     7    7    8 1   
     8    7   15 1   
     9    8    9 1   
    10    8   11 1   
    11    8   16 1   
    12    9   10 2   
    13    9   19 1   
    14   11   12 1   
    15   11   17 1   
    16   11   18 1   
    17   12   13 1   
    18   12   14 1   
    19   19   20 1   
    20   19   28 1   
    21   20   21 1   
    22   20   23 1   
    23   20   29 1   
    24   21   22 2   
    25   21   41 1   
    26   23   24 1   
    27   23   30 1   
    28   23   31 1   
    29   24   25 1   
    30   24   32 1   
    31   24   33 1   
    32   25   26 1   
    33   25   34 1   
    34   25   35 1   
    35   26   27 1   
    36   26   36 1   
    37   26   37 1   
    38   27   38 1   
    39   27   39 1   
    40   27   40 1   
    41   41   42 1   
    42   41   49 1   
    43   42   43 1   
    44   42   45 1   
    45   42   50 1   
    46   43   44 2   
    47   43   53 1   
    48   45   46 1   
    49   45   51 1   
    50   45   52 1   
    51   46   47 1   
    52   46   48 1   
    53   53   54 1   
    54   53   57 1   
    55   54   55 1   
    56   54   58 1   
    57   54   59 1   
    58   55   56 2   
    59   55   60 1   
    60   60   61 1   
    61   60   68 1   
    62   61   62 1   
    63   61   64 1   
    64   61   69 1   
    65   62   63 2   
    66   62   74 1   
    67   64   65 1   
    68   64   70 1   
    69   64   71 1   
    70   65   66 1   
    71   65   67 2   
    72   66   72 1   
    73   66   73 1   
    74   74   75 1   
    75   74   78 1   
    76   75   76 1   
    77   75   79 1   
    78   75   80 1   
    79   76   77 2   
    80   76   81 1   
    81   81   82 1   
    82   81   93 1   
    83   82   83 1   
    84   82   85 1   
    85   82   94 1   
    86   83   84 2   
    87   83  102 1   
    88   85   86 1   
    89   85   95 1   
    90   85   96 1   
    91   86   87 ar  
    92   86   88 ar  
    93   87   89 ar  
    94   87   97 1   
    95   88   90 ar  
    96   88   98 1   
    97   89   91 ar  
    98   89   99 1   
    99   90   91 ar  
   100   90  100 1   
   101   91   92 1   
   102   92  101 1   
   103  102  103 1   
   104  102  110 1   
   105  103  104 1   
   106  103  106 1   
   107  103  111 1   
   108  104  105 2   
   109  104  121 1   
   110  106  107 1   
   111  106  108 1   
   112  106  112 1   
   113  107  109 1   
   114  107  113 1   
   115  107  114 1   
   116  108  115 1   
   117  108  116 1   
   118  108  117 1   
   119  109  118 1   
   120  109  119 1   
   121  109  120 1   
   122  121  122 1   
   123  121  127 1   
   124  122  123 1   
   125  122  125 1   
   126  122  128 1   
   127  123  124 2   
   128  123  132 1   
   129  125  126 1   
   130  125  129 1   
   131  125  130 1   
   132  126  131 1   
   133  132  133 1   
   134  132  137 1   
   135  133  134 1   
   136  133  136 1   
   137  133  138 1   
   138  134  135 2   
   139  134  142 1   
   140  136  139 1   
   141  136  140 1   
   142  136  141 1   
   143  142  143 1   
   144  142  147 1   
   145  143  144 1   
   146  143  146 1   
   147  143  148 1   
   148  144  145 2   
   149  144  152 1   
   150  146  149 1   
   151  146  150 1   
   152  146  151 1   
   153  152  153 1   
   154  152  161 1   
   155  153  154 1   
   156  153  156 1   
   157  153  162 1   
   158  154  155 2   
   159  154  167 1   
   160  156  157 1   
   161  156  163 1   
   162  156  164 1   
   163  157  158 1   
   164  157  165 1   
   165  157  166 1   
   166  158  159 1   
   167  158  160 1   
   168  167  168 1   
   169  167  172 1   
   170  168  169 1   
   171  168  170 1   
   172  168  171 1   
   173  174  175 1   
   174  174  176 1   
   175  177  178 1   
   176  177  179 1   
@<TRIPOS>SUBSTRUCTURE
     1 MOL         1 TEMP              0 ****  ****    0 ROOT
