@<TRIPOS>MOLECULE
MOL
  183   181     1     0     0
SMALL
resp


@<TRIPOS>ATOM
      1 C1         -0.4220    0.6580    6.5530 c3        1 MOL     -0.291783
      2 C2         -0.8620    0.9890    5.0660 c         1 MOL      0.782826
      3 O1         -0.1100    1.5560    4.2910 o         1 MOL     -0.585864
      4 H1         -1.0260    1.2400    7.2490 hc        1 MOL      0.061433
      5 H2         -0.5680   -0.4060    6.7470 hc        1 MOL      0.061433
      6 H3          0.6290    0.9110    6.6860 hc        1 MOL      0.061433
      7 N1         -2.1280    0.7830    4.7010 n         1 MOL     -0.743947
      8 C3         -2.5590    1.0190    3.3580 c3        1 MOL      0.449425
      9 C4         -2.7690    2.5400    3.1740 c         1 MOL      0.525538
     10 O2         -3.2080    3.2570    4.1010 o         1 MOL     -0.601787
     11 C5         -3.7250    0.1060    3.0920 c3        1 MOL     -0.489292
     12 C6         -4.3550    0.3330    1.7150 c         1 MOL      0.814620
     13 O3         -5.6130    0.1700    1.6070 o         1 MOL     -0.658789
     14 O4         -3.7140    0.6590    0.7560 o         1 MOL     -0.658789
     15 H4         -2.6870    0.2060    5.3150 hn        1 MOL      0.325575
     16 H5         -1.7090    0.7790    2.7140 h1        1 MOL     -0.012528
     17 H6         -4.5490    0.4290    3.7360 hc        1 MOL      0.094407
     18 H7         -3.4700   -0.9390    3.2290 hc        1 MOL      0.094407
     19 N2         -2.4760    3.0840    1.9880 n         1 MOL     -0.268289
     20 C7         -2.8190    4.4620    1.5200 c3        1 MOL     -0.086444
     21 C8         -4.0610    4.5740    0.5350 c         1 MOL      0.395655
     22 O5         -4.4650    5.7290    0.2990 o         1 MOL     -0.559109
     23 C9         -1.5920    5.2230    0.9470 c3        1 MOL      0.325990
     24 C10        -1.0550    4.5850   -0.3220 c3        1 MOL      0.263553
     25 C11        -0.5090    5.4310    1.9450 c3        1 MOL     -0.446670
     26 C12        -0.0930    5.5150   -1.0270 c3        1 MOL     -0.412026
     27 H8         -2.1030    2.4540    1.2880 hn        1 MOL      0.099200
     28 H9         -3.1060    5.0310    2.4000 h1        1 MOL      0.078523
     29 H10        -1.9850    6.1880    0.6350 hc        1 MOL     -0.073807
     30 H11        -1.9120    4.3790   -0.9600 hc        1 MOL     -0.005815
     31 H12        -0.5000    3.6480   -0.2110 hc        1 MOL     -0.005815
     32 H13         0.1680    6.2520    1.7140 hc        1 MOL      0.099082
     33 H14        -0.8640    5.6490    2.9450 hc        1 MOL      0.099082
     34 H15         0.0780    4.5150    2.0060 hc        1 MOL      0.099082
     35 H16         0.3610    6.1960   -0.3060 hc        1 MOL      0.080829
     36 H17         0.7370    4.9960   -1.4960 hc        1 MOL      0.080829
     37 H18        -0.6210    5.9730   -1.8660 hc        1 MOL      0.080829
     38 N3         -4.6380    3.5170   -0.0270 n         1 MOL     -0.186388
     39 C13        -5.6840    3.6070   -1.1040 c3        1 MOL      0.032186
     40 C14        -7.0780    3.1130   -0.5780 c         1 MOL      0.392463
     41 O6         -8.1170    3.6240   -0.9970 o         1 MOL     -0.557072
     42 C15        -5.3010    2.6570   -2.2500 c3        1 MOL      0.089448
     43 C16        -3.7750    2.7760   -2.6160 c         1 MOL      0.506454
     44 O7         -3.4600    3.7840   -3.2890 o         1 MOL     -0.640949
     45 O8         -2.9930    1.9000   -2.2360 o         1 MOL     -0.640949
     46 H19        -4.3060    2.5950    0.2130 hn        1 MOL      0.164233
     47 H20        -5.7640    4.6110   -1.5280 h1        1 MOL      0.081940
     48 H21        -5.9080    2.9350   -3.1180 hc        1 MOL     -0.035289
     49 H22        -5.4340    1.6630   -1.8220 hc        1 MOL     -0.035289
     50 N4         -7.1520    2.0510    0.2530 n         1 MOL     -0.149751
     51 C17        -8.4400    1.3730    0.5650 c3        1 MOL     -0.252435
     52 C18        -8.5150    0.0640   -0.0790 c         1 MOL      0.497429
     53 O9         -9.5300   -0.6800    0.1020 o         1 MOL     -0.632148
     54 H23        -6.2710    1.6170    0.4900 hn        1 MOL      0.034309
     55 H24        -9.2080    2.0200    0.1500 h1        1 MOL      0.137154
     56 H25        -8.5620    1.3000    1.6520 h1        1 MOL      0.137154
     57 N5         -7.4950   -0.3690   -0.6940 n         1 MOL     -0.164148
     58 C19        -7.4550   -1.5740   -1.6190 c3        1 MOL     -0.073851
     59 C20        -7.2330   -2.8480   -0.8260 c         1 MOL      0.459459
     60 O10        -7.7580   -3.9360   -1.1670 o         1 MOL     -0.586508
     61 C21        -6.3790   -1.4550   -2.6790 c3        1 MOL     -0.258248
     62 C22        -4.9140   -1.4300   -2.2970 c         1 MOL      0.789881
     63 O11        -4.0850   -1.1730   -3.1970 o         1 MOL     -0.743913
     64 O12        -4.5050   -1.5950   -1.0990 o         1 MOL     -0.743913
     65 H26        -6.6550    0.1920   -0.5970 hn        1 MOL      0.227593
     66 H27        -8.4500   -1.7170   -2.0500 h1        1 MOL      0.100545
     67 H28        -6.5740   -0.5820   -3.2990 hc        1 MOL      0.076531
     68 H29        -6.4270   -2.3230   -3.3330 hc        1 MOL      0.076531
     69 N6         -6.5950   -2.7330    0.3110 n         1 MOL     -0.036535
     70 C23        -6.3060   -3.8090    1.1710 c3        1 MOL     -0.113146
     71 C24        -5.0880   -4.6890    0.8780 c         1 MOL      0.625569
     72 O13        -5.1000   -5.9030    1.1170 o         1 MOL     -0.590070
     73 H30        -6.2260   -1.8060    0.4880 hn        1 MOL      0.125427
     74 H31        -7.1930   -4.4430    1.2810 h1        1 MOL      0.042279
     75 H32        -6.2210   -3.4180    2.1790 h1        1 MOL      0.042279
     76 N7         -4.0240   -4.0250    0.4200 n         1 MOL     -0.373196
     77 C25        -2.6980   -4.5690    0.3250 c3        1 MOL      0.013544
     78 C26        -1.6070   -3.5280    0.6010 c         1 MOL      0.506123
     79 O14        -1.7730   -2.2360    0.4400 o         1 MOL     -0.632810
     80 C27        -2.4430   -5.3830   -0.9060 c3        1 MOL     -0.171100
     81 C28        -2.5950   -4.6630   -2.2760 c3        1 MOL     -0.107209
     82 C29        -1.4500   -3.7090   -2.5590 c         1 MOL      0.490731
     83 N8         -0.2990   -4.1670   -2.9020 n         1 MOL     -0.632648
     84 O15        -1.6500   -2.5140   -2.3880 o         1 MOL     -0.500143
     85 H33        -4.1710   -3.1210   -0.0160 hn        1 MOL      0.258131
     86 H34        -2.6570   -5.3020    1.1310 h1        1 MOL      0.041770
     87 H35        -3.2170   -6.1480   -0.9490 hc        1 MOL      0.059202
     88 H36        -1.4730   -5.8630   -0.8070 hc        1 MOL      0.059202
     89 H37        -3.5260   -4.1100   -2.4060 hc        1 MOL      0.062413
     90 H38        -2.5070   -5.3650   -3.1030 hc        1 MOL      0.062413
     91 H39        -0.2040   -5.0670   -3.3510 hn        1 MOL      0.327791
     92 H40         0.3900   -3.4610   -3.1160 hn        1 MOL      0.327791
     93 N9         -0.5000   -4.1000    1.0840 n         1 MOL     -0.340034
     94 C30         0.7950   -3.3700    1.4090 c3        1 MOL      0.037561
     95 C31         1.8420   -3.5350    0.2260 c         1 MOL      0.261023
     96 O16         2.3190   -4.5980    0.0060 o         1 MOL     -0.522696
     97 C32         1.3490   -3.8910    2.7460 c3        1 MOL      0.346156
     98 C33         2.7100   -3.3510    3.1400 c3        1 MOL     -0.240122
     99 C34         0.3550   -3.6110    3.9390 c3        1 MOL     -0.240122
    100 H41        -0.5190   -5.1010    1.1440 hn        1 MOL      0.272356
    101 H42         0.5590   -2.3020    1.4510 h1        1 MOL      0.124585
    102 H43         1.3790   -4.9760    2.6920 hc        1 MOL     -0.064431
    103 H44         3.0130   -3.7210    4.1180 hc        1 MOL      0.037681
    104 H45         3.3010   -3.8290    2.3540 hc        1 MOL      0.037681
    105 H46         2.7670   -2.2630    3.0620 hc        1 MOL      0.037681
    106 H47         0.8190   -4.0250    4.8330 hc        1 MOL      0.037681
    107 H48         0.2170   -2.5210    3.9740 hc        1 MOL      0.037681
    108 H49        -0.5810   -4.1280    3.7820 hc        1 MOL      0.037681
    109 N10         2.1450   -2.4770   -0.5270 n         1 MOL     -0.014657
    110 C35         3.3510   -2.4110   -1.4020 c3        1 MOL      0.102489
    111 C36         4.6040   -2.0170   -0.6110 c         1 MOL      0.522936
    112 O17         4.4610   -1.4640    0.5300 o         1 MOL     -0.439313
    113 C37         3.0630   -1.4440   -2.5530 c3        1 MOL     -0.335808
    114 C38         1.8460   -1.8740   -3.3930 c         1 MOL      0.599297
    115 N11         0.8150   -1.1800   -3.1940 n         1 MOL     -0.598231
    116 O18         1.7590   -2.9160   -4.1130 o         1 MOL     -0.638307
    117 H50         1.5440   -1.6640   -0.4800 hn        1 MOL      0.128663
    118 H51         3.5020   -3.4240   -1.7770 h1        1 MOL      0.032366
    119 H52         3.9140   -1.5420   -3.2280 hc        1 MOL      0.100907
    120 H53         2.9650   -0.4020   -2.2520 hc        1 MOL      0.100907
    121 H54         0.6400   -0.4240   -2.5530 hn        1 MOL      0.340235
    122 H55        -0.0140   -1.3230   -3.7540 hn        1 MOL      0.340235
    123 N12         5.8390   -2.0770   -1.1960 n         1 MOL     -0.612945
    124 C39         7.0440   -1.5300   -0.5780 c3        1 MOL      0.197221
    125 C40         7.0550    0.0230   -0.3040 c         1 MOL      0.486160
    126 O19         7.2710    0.4470    0.8430 o         1 MOL     -0.521232
    127 C41         8.2030   -1.8280   -1.5640 c3        1 MOL     -0.082660
    128 C42         9.6040   -1.5780   -0.9120 ca        1 MOL     -0.052225
    129 C43         9.9760   -2.3290    0.2160 ca        1 MOL     -0.119095
    130 C44        10.4270   -0.5580   -1.4230 ca        1 MOL     -0.119095
    131 C45        11.2030   -1.9660    0.8520 ca        1 MOL     -0.258168
    132 C46        11.5860   -0.1770   -0.7060 ca        1 MOL     -0.258168
    133 C47        11.8710   -0.8100    0.5020 ca        1 MOL      0.363503
    134 O20        12.9390   -0.5430    1.3520 oh        1 MOL     -0.529407
    135 H56         5.9110   -2.4480   -2.1370 hn        1 MOL      0.320805
    136 H57         7.3090   -2.0810    0.3270 h1        1 MOL      0.078403
    137 H58         8.0790   -1.2700   -2.4920 hc        1 MOL      0.041942
    138 H59         8.1790   -2.8670   -1.8830 hc        1 MOL      0.041942
    139 H60         9.2710   -3.0760    0.5590 ha        1 MOL      0.129224
    140 H61        10.0450   -0.0010   -2.2640 ha        1 MOL      0.129224
    141 H62        11.5640   -2.4700    1.7370 ha        1 MOL      0.139947
    142 H63        12.2400    0.6110   -1.0350 ha        1 MOL      0.139947
    143 H64        13.4050    0.2740    1.1520 ho        1 MOL      0.375164
    144 N13         6.5750    0.8090   -1.2530 n         1 MOL     -0.419639
    145 C48         6.2060    2.2140   -1.0560 c3        1 MOL      0.042722
    146 C49         5.2390    2.4470    0.0700 c         1 MOL      0.305968
    147 O21         5.3070    3.5210    0.6850 o         1 MOL     -0.514254
    148 C50         5.6760    2.7840   -2.4440 c3        1 MOL     -0.116596
    149 C51         5.0960    4.1900   -2.3790 c3        1 MOL     -0.198818
    150 C52         4.6400    4.6950   -3.7570 c         1 MOL      0.775591
    151 O22         3.4420    4.6020   -4.0960 o         1 MOL     -0.755028
    152 O23         5.5000    5.2910   -4.4620 o         1 MOL     -0.755028
    153 H65         6.4050    0.3510   -2.1330 hn        1 MOL      0.259426
    154 H66         7.1070    2.7800   -0.8210 h1        1 MOL      0.099626
    155 H67         4.8210    2.1320   -2.6480 hc        1 MOL      0.035386
    156 H68         6.3790    2.5450   -3.2340 hc        1 MOL      0.035386
    157 H69         5.8340    4.9660   -2.1460 hc        1 MOL      0.038717
    158 H70         4.3320    4.1720   -1.5970 hc        1 MOL      0.038717
    159 N14         4.4290    1.4800    0.4250 n         1 MOL      0.029104
    160 C53         3.5840    1.6930    1.5730 c3        1 MOL     -0.079634
    161 C54         4.3540    1.2850    2.8940 c         1 MOL      0.451997
    162 O24         4.0400    1.9120    3.8720 o         1 MOL     -0.558722
    163 C55         2.1780    1.1460    1.4890 c3        1 MOL      0.104823
    164 C56         1.4390    1.6030    0.2910 c3        1 MOL     -0.122172
    165 C57         0.1520    0.8760   -0.0230 c         1 MOL      0.798351
    166 O25        -0.9560    1.3470    0.3500 o         1 MOL     -0.749652
    167 O26         0.2000   -0.1400   -0.6980 o         1 MOL     -0.749652
    168 H71         4.5230    0.5830   -0.0410 hn        1 MOL      0.069800
    169 H72         3.4920    2.7840    1.6650 h1        1 MOL      0.104360
    170 H73         1.6320    1.6010    2.3280 hc        1 MOL     -0.019584
    171 H74         2.2300    0.0610    1.4640 hc        1 MOL     -0.019584
    172 H75         2.0780    1.4990   -0.5810 hc        1 MOL      0.034920
    173 H76         1.2670    2.6860    0.3320 hc        1 MOL      0.034920
    174 N15         5.1060    0.2180    2.8660 n         1 MOL     -0.003555
    175 C58         5.9130   -0.2330    3.9870 c3        1 MOL     -0.340039
    176 H77         5.4390    0.0710    4.9210 h1        1 MOL      0.110601
    177 H78         5.9980   -1.3200    3.9600 h1        1 MOL      0.110601
    178 H79         6.9060    0.2110    3.9230 h1        1 MOL      0.110601
    179 H80         5.2600   -0.2120    1.9720 hn        1 MOL      0.071484
    180 Ca1        -2.3020   -0.2620   -1.1110 Ca        1 MOL      1.717645
    181 O27        -0.9380    0.9240   -3.1790 oh        1 MOL     -0.927787
    182 H81        -0.4820    1.7690   -3.2350 ho        1 MOL      0.446582
    183 H82        -1.7730    1.0690   -3.6200 ho        1 MOL      0.446582
@<TRIPOS>BOND
     1    1    2 1   
     2    1    4 1   
     3    1    5 1   
     4    1    6 1   
     5    2    3 2   
     6    2    7 1   
     7    7    8 1   
     8    7   15 1   
     9    8    9 1   
    10    8   11 1   
    11    8   16 1   
    12    9   10 2   
    13    9   19 1   
    14   11   12 1   
    15   11   17 1   
    16   11   18 1   
    17   12   13 1   
    18   12   14 1   
    19   19   20 1   
    20   19   27 1   
    21   20   21 1   
    22   20   23 1   
    23   20   28 1   
    24   21   22 2   
    25   21   38 1   
    26   23   24 1   
    27   23   25 1   
    28   23   29 1   
    29   24   26 1   
    30   24   30 1   
    31   24   31 1   
    32   25   32 1   
    33   25   33 1   
    34   25   34 1   
    35   26   35 1   
    36   26   36 1   
    37   26   37 1   
    38   38   39 1   
    39   38   46 1   
    40   39   40 1   
    41   39   42 1   
    42   39   47 1   
    43   40   41 2   
    44   40   50 1   
    45   42   43 1   
    46   42   48 1   
    47   42   49 1   
    48   43   44 1   
    49   43   45 1   
    50   50   51 1   
    51   50   54 1   
    52   51   52 1   
    53   51   55 1   
    54   51   56 1   
    55   52   53 2   
    56   52   57 1   
    57   57   58 1   
    58   57   65 1   
    59   58   59 1   
    60   58   61 1   
    61   58   66 1   
    62   59   60 2   
    63   59   69 1   
    64   61   62 1   
    65   61   67 1   
    66   61   68 1   
    67   62   63 1   
    68   62   64 1   
    69   69   70 1   
    70   69   73 1   
    71   70   71 1   
    72   70   74 1   
    73   70   75 1   
    74   71   72 2   
    75   71   76 1   
    76   76   77 1   
    77   76   85 1   
    78   77   78 1   
    79   77   80 1   
    80   77   86 1   
    81   78   79 2   
    82   78   93 1   
    83   80   81 1   
    84   80   87 1   
    85   80   88 1   
    86   81   82 1   
    87   81   89 1   
    88   81   90 1   
    89   82   83 1   
    90   82   84 2   
    91   83   91 1   
    92   83   92 1   
    93   93   94 1   
    94   93  100 1   
    95   94   95 1   
    96   94   97 1   
    97   94  101 1   
    98   95   96 2   
    99   95  109 1   
   100   97   98 1   
   101   97   99 1   
   102   97  102 1   
   103   98  103 1   
   104   98  104 1   
   105   98  105 1   
   106   99  106 1   
   107   99  107 1   
   108   99  108 1   
   109  109  110 1   
   110  109  117 1   
   111  110  111 1   
   112  110  113 1   
   113  110  118 1   
   114  111  112 2   
   115  111  123 1   
   116  113  114 1   
   117  113  119 1   
   118  113  120 1   
   119  114  115 1   
   120  114  116 2   
   121  115  121 1   
   122  115  122 1   
   123  123  124 1   
   124  123  135 1   
   125  124  125 1   
   126  124  127 1   
   127  124  136 1   
   128  125  126 2   
   129  125  144 1   
   130  127  128 1   
   131  127  137 1   
   132  127  138 1   
   133  128  129 ar  
   134  128  130 ar  
   135  129  131 ar  
   136  129  139 1   
   137  130  132 ar  
   138  130  140 1   
   139  131  133 ar  
   140  131  141 1   
   141  132  133 ar  
   142  132  142 1   
   143  133  134 1   
   144  134  143 1   
   145  144  145 1   
   146  144  153 1   
   147  145  146 1   
   148  145  148 1   
   149  145  154 1   
   150  146  147 2   
   151  146  159 1   
   152  148  149 1   
   153  148  155 1   
   154  148  156 1   
   155  149  150 1   
   156  149  157 1   
   157  149  158 1   
   158  150  151 1   
   159  150  152 1   
   160  159  160 1   
   161  159  168 1   
   162  160  161 1   
   163  160  163 1   
   164  160  169 1   
   165  161  162 2   
   166  161  174 1   
   167  163  164 1   
   168  163  170 1   
   169  163  171 1   
   170  164  165 1   
   171  164  172 1   
   172  164  173 1   
   173  165  166 1   
   174  165  167 1   
   175  174  175 1   
   176  174  179 1   
   177  175  176 1   
   178  175  177 1   
   179  175  178 1   
   180  181  182 1   
   181  181  183 1   
@<TRIPOS>SUBSTRUCTURE
     1 MOL         1 TEMP              0 ****  ****    0 ROOT
