@<TRIPOS>MOLECULE
MOL
  189   185     1     0     0
SMALL
resp


@<TRIPOS>ATOM
      1 C1          0.0520   -4.1890    5.5850 c3        1 MOL     -0.346333
      2 C2          0.9660   -3.5420    4.4970 c         1 MOL      0.637463
      3 O1          0.9050   -2.3290    4.2150 o         1 MOL     -0.572852
      4 H1         -0.8170   -3.5520    5.7550 hc        1 MOL      0.095772
      5 H2         -0.2790   -5.1710    5.2460 hc        1 MOL      0.095772
      6 H3          0.6120   -4.2950    6.5140 hc        1 MOL      0.095772
      7 N1          1.6330   -4.3900    3.6710 n         1 MOL     -0.546136
      8 C3          2.3010   -3.8560    2.4830 c3        1 MOL      0.295569
      9 C4          2.3830   -5.0310    1.5190 c         1 MOL      0.413130
     10 O2          2.7190   -6.1810    1.9090 o         1 MOL     -0.584092
     11 C5          3.7440   -3.4130    2.8890 c3        1 MOL     -0.475502
     12 C6          4.4760   -2.7850    1.7360 c         1 MOL      0.896674
     13 O3          5.6980   -2.5360    1.9520 o         1 MOL     -0.714639
     14 O4          3.8850   -2.4310    0.7140 o         1 MOL     -0.714639
     15 H4          1.6020   -5.3810    3.8520 hn        1 MOL      0.288702
     16 H5          1.6370   -3.1080    2.0650 h1        1 MOL      0.105972
     17 H6          4.1720   -4.2940    3.3780 hc        1 MOL      0.099270
     18 H7          3.5790   -2.6010    3.6020 hc        1 MOL      0.099270
     19 N2          2.0670   -4.7900    0.2210 n         1 MOL     -0.123115
     20 C7          1.9770   -5.7960   -0.8640 c3        1 MOL      0.012570
     21 C8          2.8370   -5.2900   -2.0740 c         1 MOL      0.395035
     22 O5          3.3340   -6.1010   -2.8430 o         1 MOL     -0.579465
     23 C9          0.4990   -5.9590   -1.2120 c3        1 MOL      0.285566
     24 C10        -0.2320   -6.5390    0.0070 c3        1 MOL     -0.040244
     25 C11         0.3880   -6.7550   -2.5360 c3        1 MOL     -0.371882
     26 C12        -1.6470   -6.9010   -0.3190 c3        1 MOL      0.024677
     27 H8          1.8050   -3.8310    0.0330 hn        1 MOL     -0.054342
     28 H9          2.3240   -6.7300   -0.4360 h1        1 MOL      0.073272
     29 H10         0.0410   -5.0300   -1.5460 hc        1 MOL      0.001332
     30 H11        -0.2820   -5.7680    0.7720 hc        1 MOL     -0.000271
     31 H12         0.2980   -7.4140    0.3640 hc        1 MOL     -0.000271
     32 H13         0.8680   -7.7200   -2.3750 hc        1 MOL      0.078516
     33 H14        -0.6450   -6.7980   -2.8900 hc        1 MOL      0.078516
     34 H15         0.8460   -6.2670   -3.3950 hc        1 MOL      0.078516
     35 H16        -2.1240   -7.3680    0.5410 hc        1 MOL     -0.016417
     36 H17        -2.2840   -6.0660   -0.6040 hc        1 MOL     -0.016417
     37 H18        -1.7890   -7.6440   -1.1040 hc        1 MOL     -0.016417
     38 N3          2.9570   -3.9910   -2.3990 n         1 MOL     -0.169635
     39 C13         3.6070   -3.3880   -3.6030 c3        1 MOL     -0.043638
     40 C14         4.9830   -2.7960   -3.3510 c         1 MOL      0.428746
     41 O6          5.6640   -2.3850   -4.2650 o         1 MOL     -0.529382
     42 C15         2.6530   -2.4320   -4.3420 c3        1 MOL     -0.314059
     43 C16         2.0270   -1.3410   -3.5170 c         1 MOL      0.810067
     44 O7          2.3330   -1.2780   -2.2900 o         1 MOL     -0.709728
     45 O8          1.2770   -0.4990   -4.0420 o         1 MOL     -0.709728
     46 H19         2.3870   -3.3480   -1.8580 hn        1 MOL      0.230591
     47 H20         3.7500   -4.2290   -4.2820 h1        1 MOL      0.116724
     48 H21         1.8300   -3.0920   -4.6270 hc        1 MOL      0.085205
     49 H22         3.2150   -2.0320   -5.1930 hc        1 MOL      0.085205
     50 N4          5.4860   -2.8420   -2.1280 n         1 MOL     -0.221187
     51 C17         6.8470   -2.4350   -1.5860 c3        1 MOL      0.047767
     52 C18         7.3190   -1.0520   -1.9660 c         1 MOL      0.386834
     53 O9          8.5050   -0.9340   -2.3980 o         1 MOL     -0.591453
     54 H23         4.7880   -2.9830   -1.4090 hn        1 MOL      0.082632
     55 H24         7.5640   -3.2050   -1.8640 h1        1 MOL      0.049500
     56 H25         6.7650   -2.3940   -0.4970 h1        1 MOL      0.049500
     57 N5          6.4920   -0.0080   -2.0260 n         1 MOL     -0.120210
     58 C19         6.7960    1.4350   -2.3920 c3        1 MOL     -0.003215
     59 C20         7.1380    2.3130   -1.1470 c         1 MOL      0.420324
     60 O10         8.0280    3.1760   -1.2120 o         1 MOL     -0.581927
     61 C21         5.6000    2.0350   -3.0700 c3        1 MOL     -0.255858
     62 C22         4.2180    1.8540   -2.3630 c         1 MOL      0.748318
     63 O11         4.1080    1.1060   -1.3700 o         1 MOL     -0.670955
     64 O12         3.3080    2.5910   -2.7380 o         1 MOL     -0.670955
     65 H26         5.5690   -0.1100   -1.6110 hn        1 MOL      0.130884
     66 H27         7.6260    1.5130   -3.0830 h1        1 MOL      0.112594
     67 H28         5.5420    1.5750   -4.0620 hc        1 MOL      0.071578
     68 H29         5.8080    3.0890   -3.2920 hc        1 MOL      0.071578
     69 N6          6.7030    1.9940    0.0580 n         1 MOL     -0.260502
     70 C23         7.0540    2.8140    1.2790 c3        1 MOL     -0.041569
     71 C24         5.8330    3.6180    1.8110 c         1 MOL      0.514331
     72 O13         6.0740    4.3530    2.7510 o         1 MOL     -0.621029
     73 H30         6.1340    1.1600    0.0580 hn        1 MOL      0.219096
     74 H31         7.8400    3.5310    1.0480 h1        1 MOL      0.074641
     75 H32         7.4110    2.1890    2.1000 h1        1 MOL      0.074641
     76 N7          4.7290    3.6100    1.1570 n         1 MOL     -0.323082
     77 C25         3.5290    4.2820    1.5910 c3        1 MOL      0.143524
     78 C26         2.3270    3.2470    1.5450 c         1 MOL      0.422602
     79 O14         2.4830    2.1810    0.9950 o         1 MOL     -0.485536
     80 C27         3.2250    5.4920    0.7420 c3        1 MOL     -0.257822
     81 C28         4.2170    6.6890    0.9740 c3        1 MOL     -0.195983
     82 C29         4.0000    7.9490    0.0740 c         1 MOL      0.682201
     83 N8          4.6820    9.0330    0.2790 n         1 MOL     -0.794808
     84 O15         3.0760    8.0630   -0.7840 o         1 MOL     -0.573281
     85 H33         4.5910    2.9940    0.3730 hn        1 MOL      0.262252
     86 H34         3.6580    4.5580    2.6320 h1        1 MOL      0.029577
     87 H35         2.2400    5.8360    1.0620 hc        1 MOL      0.107843
     88 H36         3.2450    5.2540   -0.3190 hc        1 MOL      0.107843
     89 H37         5.2430    6.3900    0.7490 hc        1 MOL      0.090010
     90 H38         4.1670    6.9760    2.0260 hc        1 MOL      0.090010
     91 H39         5.4460    9.1360    0.9380 hn        1 MOL      0.346976
     92 H40         4.4940    9.8240   -0.3100 hn        1 MOL      0.346976
     93 N9          1.2190    3.6310    2.1460 n         1 MOL     -0.361730
     94 C30         0.0350    2.7610    2.3150 c3        1 MOL     -0.033531
     95 C31        -1.0700    3.1890    1.2670 c         1 MOL      0.673070
     96 O16        -1.4770    4.3580    1.2580 o         1 MOL     -0.633106
     97 C32        -0.5210    2.9280    3.7170 c3        1 MOL      0.288732
     98 C33        -1.9310    2.2350    4.0170 c3        1 MOL     -0.306216
     99 C34         0.4340    2.4050    4.7640 c3        1 MOL     -0.306216
    100 H41         1.0090    4.5270    2.5640 hn        1 MOL      0.276992
    101 H42         0.2440    1.7100    2.1580 h1        1 MOL      0.133761
    102 H43        -0.6370    3.9950    3.8660 hc        1 MOL     -0.063072
    103 H44        -2.1550    2.4450    5.0620 hc        1 MOL      0.058612
    104 H45        -2.6960    2.6120    3.3380 hc        1 MOL      0.058612
    105 H46        -1.8280    1.1770    3.8030 hc        1 MOL      0.058612
    106 H47         0.0490    2.6330    5.7460 hc        1 MOL      0.058612
    107 H48         0.5600    1.3180    4.7020 hc        1 MOL      0.058612
    108 H49         1.3570    2.9690    4.6260 hc        1 MOL      0.058612
    109 N10        -1.5160    2.3490    0.3590 n         1 MOL     -0.616821
    110 C35        -2.8190    2.5600   -0.2760 c3        1 MOL      0.470591
    111 C36        -4.1080    2.3100    0.5580 c         1 MOL     -0.023014
    112 O17        -4.0390    1.4660    1.5110 o         1 MOL     -0.188704
    113 C37        -2.7670    1.7000   -1.4960 c3        1 MOL     -0.326713
    114 C38        -3.9010    1.8560   -2.4090 c         1 MOL      0.758937
    115 N11        -4.0540    2.9070   -3.1160 n         1 MOL     -0.680716
    116 O18        -4.7260    0.9550   -2.3800 o         1 MOL     -0.644077
    117 H50        -1.3180    1.3620    0.4460 hn        1 MOL      0.289488
    118 H51        -2.8570    3.5960   -0.6150 h1        1 MOL      0.005093
    119 H52        -2.6260    0.6700   -1.1650 hc        1 MOL      0.106623
    120 H53        -1.9340    1.9790   -2.1350 hc        1 MOL      0.106623
    121 H54        -3.3670    3.6550   -3.1040 hn        1 MOL      0.297713
    122 H55        -4.9560    3.1020   -3.5170 hn        1 MOL      0.297713
    123 N12        -5.2460    2.9210    0.2030 n         1 MOL     -0.132173
    124 C39        -6.5250    2.6250    0.7430 c3        1 MOL      0.260042
    125 C40        -6.8350    1.0850    0.8300 c         1 MOL      0.181528
    126 O19        -7.3850    0.5340    1.8210 o         1 MOL     -0.534206
    127 C41        -7.5710    3.3760    0.0030 c3        1 MOL     -0.262080
    128 C42        -7.5200    3.3010   -1.5370 ca        1 MOL      0.179282
    129 C43        -8.1700    2.2690   -2.1960 ca        1 MOL     -0.264025
    130 C44        -6.9820    4.3220   -2.2750 ca        1 MOL     -0.264025
    131 C45        -8.1190    2.1090   -3.6010 ca        1 MOL     -0.150179
    132 C46        -6.9990    4.1850   -3.6460 ca        1 MOL     -0.150179
    133 C47        -7.5010    3.0670   -4.3840 ca        1 MOL      0.243236
    134 O20        -7.3270    3.0520   -5.7330 oh        1 MOL     -0.389809
    135 H56        -5.2110    3.4770   -0.6450 hn        1 MOL      0.077877
    136 H57        -6.6250    3.0760    1.7280 h1        1 MOL      0.022065
    137 H58        -7.4190    4.4440    0.2100 hc        1 MOL      0.076849
    138 H59        -8.5500    3.0090    0.3190 hc        1 MOL      0.076849
    139 H60        -8.6210    1.4690   -1.6150 ha        1 MOL      0.146343
    140 H61        -6.5320    5.2260   -1.8760 ha        1 MOL      0.146343
    141 H62        -8.4510    1.2040   -4.0830 ha        1 MOL      0.114595
    142 H63        -6.6650    5.0790   -4.1620 ha        1 MOL      0.114595
    143 H64        -6.9640    3.9050   -5.9960 ho        1 MOL      0.285378
    144 N13        -6.3900    0.3440   -0.1790 n         1 MOL      0.172741
    145 C48        -6.7190   -1.0800   -0.1910 c3        1 MOL     -0.113213
    146 C49        -5.9540   -1.8570    0.9700 c         1 MOL      0.411104
    147 O21        -6.4690   -2.8450    1.5330 o         1 MOL     -0.487878
    148 C50        -6.4650   -1.7320   -1.5870 c3        1 MOL     -0.098382
    149 C51        -7.0590   -3.1820   -1.6420 c3        1 MOL     -0.117404
    150 C52        -8.5790   -3.2240   -1.6380 c         1 MOL      0.631194
    151 O22        -9.0850   -3.9520   -0.7890 o         1 MOL     -0.714480
    152 O23        -9.2880   -2.4760   -2.3810 o         1 MOL     -0.714480
    153 H65        -5.8550    0.6730   -0.9670 hn        1 MOL      0.252943
    154 H66        -7.7790   -1.1510    0.0540 h1        1 MOL      0.146317
    155 H67        -5.3820   -1.7550   -1.6950 hc        1 MOL      0.033166
    156 H68        -6.9130   -1.0840   -2.3290 hc        1 MOL      0.033166
    157 H69        -6.7500   -3.6900   -0.7240 hc        1 MOL      0.007800
    158 H70        -6.7890   -3.7290   -2.5380 hc        1 MOL      0.007800
    159 N14        -4.7550   -1.4220    1.3620 n         1 MOL     -0.044561
    160 C53        -3.8040   -1.9100    2.3480 c3        1 MOL     -0.132709
    161 C54        -4.2390   -1.3150    3.7160 c         1 MOL      0.324531
    162 O24        -4.1410   -2.0290    4.6910 o         1 MOL     -0.557740
    163 C55        -2.3850   -1.3980    2.0710 c3        1 MOL      0.188142
    164 C56        -1.8220   -1.9570    0.7680 c3        1 MOL     -0.269918
    165 C57        -0.3530   -1.4190    0.4670 c         1 MOL      0.780442
    166 O25         0.5420   -2.1920    0.0500 o         1 MOL     -0.726879
    167 O26        -0.0990   -0.1870    0.6640 o         1 MOL     -0.726879
    168 H71        -4.4410   -0.5550    0.9460 hn        1 MOL     -0.047950
    169 H72        -3.7220   -2.9990    2.3740 h1        1 MOL      0.113310
    170 H73        -1.6100   -1.6730    2.7900 hc        1 MOL      0.009870
    171 H74        -2.2830   -0.3070    1.9960 hc        1 MOL      0.009870
    172 H75        -2.5300   -1.6150    0.0160 hc        1 MOL      0.051111
    173 H76        -1.7590   -3.0450    0.8210 hc        1 MOL      0.051111
    174 N15        -4.8610   -0.1750    3.7940 n         1 MOL      0.085152
    175 C58        -5.2800    0.5390    4.9800 c3        1 MOL     -0.179120
    176 H77        -4.5940    1.3660    5.1670 h1        1 MOL      0.065011
    177 H78        -6.2870    0.9300    4.8330 h1        1 MOL      0.065011
    178 H79        -5.2740   -0.1380    5.8340 h1        1 MOL      0.065011
    179 H80        -5.0250    0.3000    2.9170 hn        1 MOL      0.002670
    180 Ca1         2.5310   -0.2330    0.0120 Ca        1 MOL      1.724847
    181 O27         2.0860   -0.2070    3.0130 oh        1 MOL     -0.874966
    182 H81         1.6060   -0.9090    3.4450 ho        1 MOL      0.399901
    183 H82         2.5740    0.2190    3.7220 ho        1 MOL      0.399901
    184 O28         1.1260    1.2680   -1.9260 oh        1 MOL     -0.874966
    185 H83         0.9540    0.6390   -2.6230 ho        1 MOL      0.399901
    186 H84         1.7610    1.8790   -2.3010 ho        1 MOL      0.399901
    187 O29         5.2120    0.1150    1.5490 oh        1 MOL     -0.874966
    188 H85         5.1340    0.5400    2.3980 ho        1 MOL      0.399901
    189 H86         5.5010   -0.7730    1.7560 ho        1 MOL      0.399901
@<TRIPOS>BOND
     1    1    2 1   
     2    1    4 1   
     3    1    5 1   
     4    1    6 1   
     5    2    3 2   
     6    2    7 1   
     7    7    8 1   
     8    7   15 1   
     9    8    9 1   
    10    8   11 1   
    11    8   16 1   
    12    9   10 2   
    13    9   19 1   
    14   11   12 1   
    15   11   17 1   
    16   11   18 1   
    17   12   13 1   
    18   12   14 1   
    19   19   20 1   
    20   19   27 1   
    21   20   21 1   
    22   20   23 1   
    23   20   28 1   
    24   21   22 2   
    25   21   38 1   
    26   23   24 1   
    27   23   25 1   
    28   23   29 1   
    29   24   26 1   
    30   24   30 1   
    31   24   31 1   
    32   25   32 1   
    33   25   33 1   
    34   25   34 1   
    35   26   35 1   
    36   26   36 1   
    37   26   37 1   
    38   38   39 1   
    39   38   46 1   
    40   39   40 1   
    41   39   42 1   
    42   39   47 1   
    43   40   41 2   
    44   40   50 1   
    45   42   43 1   
    46   42   48 1   
    47   42   49 1   
    48   43   44 1   
    49   43   45 1   
    50   50   51 1   
    51   50   54 1   
    52   51   52 1   
    53   51   55 1   
    54   51   56 1   
    55   52   53 2   
    56   52   57 1   
    57   57   58 1   
    58   57   65 1   
    59   58   59 1   
    60   58   61 1   
    61   58   66 1   
    62   59   60 2   
    63   59   69 1   
    64   61   62 1   
    65   61   67 1   
    66   61   68 1   
    67   62   63 1   
    68   62   64 1   
    69   69   70 1   
    70   69   73 1   
    71   70   71 1   
    72   70   74 1   
    73   70   75 1   
    74   71   72 2   
    75   71   76 1   
    76   76   77 1   
    77   76   85 1   
    78   77   78 1   
    79   77   80 1   
    80   77   86 1   
    81   78   79 2   
    82   78   93 1   
    83   80   81 1   
    84   80   87 1   
    85   80   88 1   
    86   81   82 1   
    87   81   89 1   
    88   81   90 1   
    89   82   83 1   
    90   82   84 2   
    91   83   91 1   
    92   83   92 1   
    93   93   94 1   
    94   93  100 1   
    95   94   95 1   
    96   94   97 1   
    97   94  101 1   
    98   95   96 2   
    99   95  109 1   
   100   97   98 1   
   101   97   99 1   
   102   97  102 1   
   103   98  103 1   
   104   98  104 1   
   105   98  105 1   
   106   99  106 1   
   107   99  107 1   
   108   99  108 1   
   109  109  110 1   
   110  109  117 1   
   111  110  111 1   
   112  110  113 1   
   113  110  118 1   
   114  111  112 2   
   115  111  123 1   
   116  113  114 1   
   117  113  119 1   
   118  113  120 1   
   119  114  115 1   
   120  114  116 2   
   121  115  121 1   
   122  115  122 1   
   123  123  124 1   
   124  123  135 1   
   125  124  125 1   
   126  124  127 1   
   127  124  136 1   
   128  125  126 2   
   129  125  144 1   
   130  127  128 1   
   131  127  137 1   
   132  127  138 1   
   133  128  129 ar  
   134  128  130 ar  
   135  129  131 ar  
   136  129  139 1   
   137  130  132 ar  
   138  130  140 1   
   139  131  133 ar  
   140  131  141 1   
   141  132  133 ar  
   142  132  142 1   
   143  133  134 1   
   144  134  143 1   
   145  144  145 1   
   146  144  153 1   
   147  145  146 1   
   148  145  148 1   
   149  145  154 1   
   150  146  147 2   
   151  146  159 1   
   152  148  149 1   
   153  148  155 1   
   154  148  156 1   
   155  149  150 1   
   156  149  157 1   
   157  149  158 1   
   158  150  151 1   
   159  150  152 1   
   160  159  160 1   
   161  159  168 1   
   162  160  161 1   
   163  160  163 1   
   164  160  169 1   
   165  161  162 2   
   166  161  174 1   
   167  163  164 1   
   168  163  170 1   
   169  163  171 1   
   170  164  165 1   
   171  164  172 1   
   172  164  173 1   
   173  165  166 1   
   174  165  167 1   
   175  174  175 1   
   176  174  179 1   
   177  175  176 1   
   178  175  177 1   
   179  175  178 1   
   180  181  182 1   
   181  181  183 1   
   182  184  185 1   
   183  184  186 1   
   184  187  188 1   
   185  187  189 1   
@<TRIPOS>SUBSTRUCTURE
     1 MOL         1 TEMP              0 ****  ****    0 ROOT
