@<TRIPOS>MOLECULE
MOL
  179   176     1     0     0
SMALL
resp


@<TRIPOS>ATOM
      1 C1          2.2550    3.7770    3.9350 c3        1 MOL     -0.477128
      2 C2          1.3570    3.5820    2.7320 c         1 MOL      0.593558
      3 O1          1.7460    3.8940    1.6390 o         1 MOL     -0.556081
      4 H1          2.0950    4.7730    4.3490 hc        1 MOL      0.121805
      5 H2          2.0190    3.0280    4.6910 hc        1 MOL      0.121805
      6 H3          3.2970    3.6730    3.6320 hc        1 MOL      0.121805
      7 N1          0.1480    2.9940    2.9750 n         1 MOL     -0.446768
      8 C3         -0.9280    2.7530    1.9690 c3        1 MOL      0.107896
      9 C4         -1.7200    3.9990    1.5390 c         1 MOL      0.344661
     10 O2         -2.8700    4.1940    1.9350 o         1 MOL     -0.462693
     11 C5         -1.8660    1.6380    2.5090 c3        1 MOL     -0.044586
     12 C6         -2.8510    1.1770    1.5210 c         1 MOL      0.575812
     13 O3         -3.7950    0.4890    1.9170 o         1 MOL     -0.613076
     14 O4         -2.6670    1.4460    0.2410 o         1 MOL     -0.613076
     15 H4         -0.0440    2.7440    3.9310 hn        1 MOL      0.268121
     16 H5         -0.2980    2.3530    1.1790 h1        1 MOL     -0.067010
     17 H6         -2.4070    2.0010    3.3880 hc        1 MOL      0.043271
     18 H7         -1.2840    0.7520    2.7930 hc        1 MOL      0.043271
     19 N2         -1.1790    4.8120    0.7210 n         1 MOL     -0.291219
     20 C7         -1.7620    6.0980    0.2490 c3        1 MOL      0.211353
     21 C8         -3.0300    5.9790   -0.6300 c         1 MOL      0.221117
     22 O5         -3.9990    6.7810   -0.5660 o         1 MOL     -0.497292
     23 C9         -0.6810    6.9630   -0.4540 c3        1 MOL     -0.227329
     24 C10         0.2490    7.6170    0.5920 c3        1 MOL     -0.067498
     25 C11         1.3120    8.4460   -0.1100 c3        1 MOL     -0.001117
     26 C12         2.4900    8.9710    0.7270 c3        1 MOL     -0.063939
     27 N3          3.0710    7.8590    1.5010 n4        1 MOL     -0.252200
     28 H8         -0.2240    4.6250    0.4320 hn        1 MOL      0.310754
     29 H9         -2.0360    6.6270    1.1660 h1        1 MOL      0.045586
     30 H10        -1.1300    7.8190   -0.9600 hc        1 MOL      0.093661
     31 H11        -0.1530    6.3380   -1.1640 hc        1 MOL      0.093661
     32 H12         0.6240    6.8720    1.2940 hc        1 MOL      0.038304
     33 H13        -0.3790    8.3330    1.1160 hc        1 MOL      0.038304
     34 H14         0.8330    9.2460   -0.6690 hc        1 MOL      0.055851
     35 H15         1.7340    7.7310   -0.8260 hc        1 MOL      0.055851
     36 H16         2.1350    9.6910    1.4640 hx        1 MOL      0.106146
     37 H17         3.2120    9.4610    0.0820 hx        1 MOL      0.106146
     38 H18         3.8960    8.2470    1.9450 hn        1 MOL      0.303125
     39 H19         2.4090    7.5650    2.1970 hn        1 MOL      0.303125
     40 H20         3.3030    6.9920    1.0540 hn        1 MOL      0.303125
     41 N4         -3.1280    4.8850   -1.4340 n         1 MOL     -0.072273
     42 C13        -4.2670    4.4930   -2.2540 c3        1 MOL     -0.013573
     43 C14        -5.2830    3.7130   -1.4380 c         1 MOL      0.417952
     44 O6         -6.3830    3.5990   -1.9580 o         1 MOL     -0.520880
     45 C15        -3.6630    3.6880   -3.4460 c3        1 MOL     -0.312353
     46 C16        -2.8260    2.4850   -3.0490 c         1 MOL      0.714484
     47 O7         -3.3080    1.3480   -3.0070 o         1 MOL     -0.723196
     48 O8         -1.6410    2.7190   -2.7100 o         1 MOL     -0.723196
     49 H21        -2.3230    4.3150   -1.6280 hn        1 MOL      0.154109
     50 H22        -4.7780    5.3420   -2.7170 h1        1 MOL      0.105629
     51 H23        -3.0250    4.4280   -3.9350 hc        1 MOL      0.087193
     52 H24        -4.4420    3.2490   -4.0620 hc        1 MOL      0.087193
     53 N5         -5.0220    3.3030   -0.2050 n         1 MOL      0.047057
     54 C17        -5.9900    2.6220    0.6850 c3        1 MOL     -0.349935
     55 C18        -6.6620    1.3500    0.1670 c         1 MOL      0.560191
     56 O9         -7.8640    1.2950    0.1930 o         1 MOL     -0.537112
     57 H25        -4.0560    3.2490    0.0760 hn        1 MOL      0.008586
     58 H26        -6.8340    3.3040    0.8070 h1        1 MOL      0.147448
     59 H27        -5.4330    2.3160    1.5790 h1        1 MOL      0.147448
     60 N6         -5.9440    0.3670   -0.4960 n         1 MOL     -0.101271
     61 C19        -6.4310   -0.9790   -0.8440 c3        1 MOL     -0.117675
     62 C20        -6.2300   -1.9470    0.3140 c         1 MOL      0.323900
     63 O10        -6.7950   -3.0270    0.1970 o         1 MOL     -0.444481
     64 C21        -5.7340   -1.4880   -2.1290 c3        1 MOL     -0.356937
     65 C22        -4.2520   -1.6620   -1.9810 c         1 MOL      0.457944
     66 N7         -3.6550   -2.1470   -3.0190 n         1 MOL     -0.734652
     67 O11        -3.6120   -1.3950   -0.9610 o         1 MOL     -0.001945
     68 H28        -4.9280    0.4110   -0.3820 hn        1 MOL     -0.087652
     69 H29        -7.4920   -0.8380   -1.0640 h1        1 MOL      0.154392
     70 H30        -6.0190   -0.6740   -2.7980 hc        1 MOL      0.149589
     71 H31        -6.1450   -2.4620   -2.3660 hc        1 MOL      0.149589
     72 H32        -4.2030   -2.2970   -3.8490 hn        1 MOL      0.339379
     73 H33        -2.8340   -2.7220   -2.9090 hn        1 MOL      0.339379
     74 N8         -5.6150   -1.6020    1.4930 n         1 MOL     -0.193934
     75 C23        -5.4150   -2.5390    2.6000 c3        1 MOL     -0.244581
     76 C24        -4.1160   -3.3590    2.5090 c         1 MOL      0.660299
     77 O12        -3.9770   -4.3310    3.2720 o         1 MOL     -0.576379
     78 H34        -5.0900   -0.7370    1.5010 hn        1 MOL      0.220118
     79 H35        -6.2630   -3.1880    2.8160 h1        1 MOL      0.118882
     80 H36        -5.2290   -1.8200    3.3950 h1        1 MOL      0.118882
     81 N9         -3.1450   -2.9440    1.6530 n         1 MOL     -0.679225
     82 C25        -2.0000   -3.7250    1.4170 c3        1 MOL      0.493509
     83 C26        -0.8660   -2.6670    1.1010 c         1 MOL      0.223108
     84 O13        -1.1030   -1.5830    0.6390 o         1 MOL     -0.583779
     85 C27        -2.1240   -4.6210    0.2150 c3        1 MOL     -0.094312
     86 C28        -3.1730   -5.7600    0.2670 ca        1 MOL      0.074683
     87 C29        -4.4720   -5.5670   -0.3040 ca        1 MOL     -0.178692
     88 C30        -2.7710   -7.0270    0.6350 ca        1 MOL     -0.178692
     89 C31        -5.4230   -6.5860   -0.3400 ca        1 MOL     -0.251974
     90 C32        -3.7210   -8.0620    0.5660 ca        1 MOL     -0.251974
     91 C33        -5.0420   -7.8340    0.0870 ca        1 MOL      0.368044
     92 O14        -5.9460   -8.8830    0.0010 oh        1 MOL     -0.496517
     93 H37        -3.3210   -2.0910    1.1530 hn        1 MOL      0.414347
     94 H38        -1.7120   -4.3270    2.2800 h1        1 MOL     -0.037470
     95 H39        -1.1340   -4.9810   -0.0740 hc        1 MOL     -0.006099
     96 H40        -2.4140   -3.9410   -0.5950 hc        1 MOL     -0.006099
     97 H41        -4.7700   -4.5320   -0.3660 ha        1 MOL      0.117067
     98 H42        -1.7940   -7.2280    1.0570 ha        1 MOL      0.117067
     99 H43        -6.4530   -6.2930   -0.5000 ha        1 MOL      0.146520
    100 H44        -3.4310   -9.0080    0.9930 ha        1 MOL      0.146520
    101 H45        -5.6830   -9.6990    0.4250 ho        1 MOL      0.348874
    102 N10         0.3960   -3.1170    1.3110 n         1 MOL     -0.082553
    103 C34         1.5540   -2.4150    1.0130 c3        1 MOL     -0.450090
    104 C35         2.5640   -3.3160    0.3880 c         1 MOL      0.475088
    105 O15         3.0270   -4.3210    0.9760 o         1 MOL     -0.518910
    106 C36         2.1000   -1.6760    2.2990 c3        1 MOL     -0.184856
    107 C37         2.2580   -2.6140    3.4980 c3        1 MOL      0.281843
    108 C38         1.1580   -0.5120    2.5140 c3        1 MOL     -0.581256
    109 C39         2.8760   -2.0330    4.7970 c3        1 MOL     -0.378086
    110 H46         0.3740   -4.0780    1.6090 hn        1 MOL      0.221229
    111 H47         1.3570   -1.6770    0.2270 h1        1 MOL      0.249920
    112 H48         3.1450   -1.3630    2.1700 hc        1 MOL      0.191660
    113 H49         3.0400   -3.3230    3.2250 hc        1 MOL     -0.001572
    114 H50         1.3620   -3.1760    3.7480 hc        1 MOL     -0.001572
    115 H51         1.5090    0.0740    3.3590 hc        1 MOL      0.181428
    116 H52         0.9420    0.1840    1.7060 hc        1 MOL      0.181428
    117 H53         0.2230   -0.8420    2.9380 hc        1 MOL      0.181428
    118 H54         2.0230   -1.9630    5.4690 hc        1 MOL      0.083920
    119 H55         3.6430   -2.7110    5.1690 hc        1 MOL      0.083920
    120 H56         3.3680   -1.0860    4.5930 hc        1 MOL      0.083920
    121 N11         3.1990   -2.9170   -0.7850 n         1 MOL     -0.216279
    122 C40         4.4050   -3.6190   -1.2890 c3        1 MOL      0.021834
    123 C41         5.6700   -3.1560   -0.5220 c         1 MOL      0.326621
    124 O16         5.6770   -2.2580    0.2940 o         1 MOL     -0.235176
    125 C42         4.4580   -3.4270   -2.7890 c3        1 MOL     -0.170956
    126 O17         4.3940   -2.0590   -3.0780 oh        1 MOL     -0.502268
    127 H57         2.8140   -2.0970   -1.2200 hn        1 MOL      0.173304
    128 H58         4.2700   -4.6870   -1.0740 h1        1 MOL      0.077775
    129 H59         3.5110   -3.8600   -3.0950 h1        1 MOL      0.107754
    130 H60         5.3330   -3.9320   -3.1820 h1        1 MOL      0.107754
    131 H61         4.6710   -2.0170   -3.9980 ho        1 MOL      0.402734
    132 N12         6.7780   -3.7780   -0.8560 n         1 MOL     -0.386525
    133 C43         8.0850   -3.4010   -0.2970 c3        1 MOL      0.134482
    134 C44         8.5160   -1.9780   -0.8080 c         1 MOL      0.377536
    135 O18         9.5180   -1.4670   -0.3240 o         1 MOL     -0.500949
    136 C45         9.0430   -4.5690   -0.6460 c3        1 MOL     -0.149631
    137 H62         6.7750   -4.5840   -1.4690 hn        1 MOL      0.280736
    138 H63         7.8580   -3.4120    0.7770 h1        1 MOL      0.076591
    139 H64         9.3080   -4.4770   -1.7000 hc        1 MOL      0.052335
    140 H65         9.9090   -4.4690    0.0050 hc        1 MOL      0.052335
    141 H66         8.5520   -5.5460   -0.5740 hc        1 MOL      0.052335
    142 N13         7.8060   -1.3520   -1.7340 n         1 MOL     -0.274067
    143 C46         7.9870    0.0640   -2.1250 c3        1 MOL      0.178120
    144 C47         7.1430    1.0250   -1.2670 c         1 MOL      0.258615
    145 O19         7.5520    2.1550   -0.9940 o         1 MOL     -0.483184
    146 C48         7.8120    0.0990   -3.6730 c3        1 MOL     -0.393867
    147 H67         7.2030   -1.9420   -2.2900 hn        1 MOL      0.199681
    148 H68         9.0420    0.2740   -1.9350 h1        1 MOL      0.093123
    149 H69         7.5310    1.0930   -4.0240 hc        1 MOL      0.108073
    150 H70         8.7880   -0.1950   -4.0610 hc        1 MOL      0.108073
    151 H71         7.0690   -0.6330   -3.9870 hc        1 MOL      0.108073
    152 N14         5.9780    0.5720   -0.7740 n         1 MOL      0.002885
    153 C49         5.1510    1.4480    0.0410 c3        1 MOL     -0.193057
    154 C50         5.7250    1.4420    1.4610 c         1 MOL      0.416467
    155 O20         5.8560    2.4960    2.1200 o         1 MOL     -0.525539
    156 C51         3.6770    0.9280   -0.0390 c3        1 MOL      0.049258
    157 C52         3.0430    1.1690   -1.3830 c3        1 MOL     -0.029706
    158 C53         1.5380    0.7000   -1.3290 c         1 MOL      0.625512
    159 O21         1.1830   -0.4220   -1.8710 o         1 MOL     -0.664924
    160 O22         0.6950    1.4650   -0.8230 o         1 MOL     -0.664924
    161 H72         5.6530   -0.2760   -1.2290 hn        1 MOL      0.165023
    162 H73         5.2420    2.4760   -0.2870 h1        1 MOL      0.126412
    163 H74         3.0350    1.4170    0.7000 hc        1 MOL      0.074269
    164 H75         3.6460   -0.1250    0.2470 hc        1 MOL      0.074269
    165 H76         3.5940    0.6700   -2.1840 hc        1 MOL     -0.021601
    166 H77         3.1810    2.2370   -1.5480 hc        1 MOL     -0.021601
    167 N15         6.1770    0.2090    1.8380 n         1 MOL      0.041259
    168 C54         6.6730   -0.1540    3.1800 c3        1 MOL     -0.371958
    169 H78         6.0820    0.3620    3.9370 h1        1 MOL      0.135460
    170 H79         6.5830   -1.2310    3.3230 h1        1 MOL      0.135460
    171 H80         7.7180    0.1390    3.2740 h1        1 MOL      0.135460
    172 H81         5.8940   -0.5650    1.2470 hn        1 MOL     -0.122084
    173 Ca1        -1.4090    0.0830   -1.5680 Ca        1 MOL      1.635366
    174 O23        -0.8230   -2.7240   -2.3110 oh        1 MOL     -0.853832
    175 H82        -0.0950   -2.4370   -2.8640 ho        1 MOL      0.418614
    176 H83        -0.7260   -3.6740   -2.2610 ho        1 MOL      0.418614
    177 O24        -0.7680   -0.1840   -4.0420 oh        1 MOL     -0.853832
    178 H84        -1.5350   -0.1930   -4.6200 ho        1 MOL      0.418614
    179 H85        -0.1150    0.3330   -4.5180 ho        1 MOL      0.418614
@<TRIPOS>BOND
     1    1    2 1   
     2    1    4 1   
     3    1    5 1   
     4    1    6 1   
     5    2    3 2   
     6    2    7 1   
     7    7    8 1   
     8    7   15 1   
     9    8    9 1   
    10    8   11 1   
    11    8   16 1   
    12    9   10 2   
    13    9   19 1   
    14   11   12 1   
    15   11   17 1   
    16   11   18 1   
    17   12   13 1   
    18   12   14 1   
    19   19   20 1   
    20   19   28 1   
    21   20   21 1   
    22   20   23 1   
    23   20   29 1   
    24   21   22 2   
    25   21   41 1   
    26   23   24 1   
    27   23   30 1   
    28   23   31 1   
    29   24   25 1   
    30   24   32 1   
    31   24   33 1   
    32   25   26 1   
    33   25   34 1   
    34   25   35 1   
    35   26   27 1   
    36   26   36 1   
    37   26   37 1   
    38   27   38 1   
    39   27   39 1   
    40   27   40 1   
    41   41   42 1   
    42   41   49 1   
    43   42   43 1   
    44   42   45 1   
    45   42   50 1   
    46   43   44 2   
    47   43   53 1   
    48   45   46 1   
    49   45   51 1   
    50   45   52 1   
    51   46   47 1   
    52   46   48 1   
    53   53   54 1   
    54   53   57 1   
    55   54   55 1   
    56   54   58 1   
    57   54   59 1   
    58   55   56 2   
    59   55   60 1   
    60   60   61 1   
    61   60   68 1   
    62   61   62 1   
    63   61   64 1   
    64   61   69 1   
    65   62   63 2   
    66   62   74 1   
    67   64   65 1   
    68   64   70 1   
    69   64   71 1   
    70   65   66 1   
    71   65   67 2   
    72   66   72 1   
    73   66   73 1   
    74   74   75 1   
    75   74   78 1   
    76   75   76 1   
    77   75   79 1   
    78   75   80 1   
    79   76   77 2   
    80   76   81 1   
    81   81   82 1   
    82   81   93 1   
    83   82   83 1   
    84   82   85 1   
    85   82   94 1   
    86   83   84 2   
    87   83  102 1   
    88   85   86 1   
    89   85   95 1   
    90   85   96 1   
    91   86   87 ar  
    92   86   88 ar  
    93   87   89 ar  
    94   87   97 1   
    95   88   90 ar  
    96   88   98 1   
    97   89   91 ar  
    98   89   99 1   
    99   90   91 ar  
   100   90  100 1   
   101   91   92 1   
   102   92  101 1   
   103  102  103 1   
   104  102  110 1   
   105  103  104 1   
   106  103  106 1   
   107  103  111 1   
   108  104  105 2   
   109  104  121 1   
   110  106  107 1   
   111  106  108 1   
   112  106  112 1   
   113  107  109 1   
   114  107  113 1   
   115  107  114 1   
   116  108  115 1   
   117  108  116 1   
   118  108  117 1   
   119  109  118 1   
   120  109  119 1   
   121  109  120 1   
   122  121  122 1   
   123  121  127 1   
   124  122  123 1   
   125  122  125 1   
   126  122  128 1   
   127  123  124 2   
   128  123  132 1   
   129  125  126 1   
   130  125  129 1   
   131  125  130 1   
   132  126  131 1   
   133  132  133 1   
   134  132  137 1   
   135  133  134 1   
   136  133  136 1   
   137  133  138 1   
   138  134  135 2   
   139  134  142 1   
   140  136  139 1   
   141  136  140 1   
   142  136  141 1   
   143  142  143 1   
   144  142  147 1   
   145  143  144 1   
   146  143  146 1   
   147  143  148 1   
   148  144  145 2   
   149  144  152 1   
   150  146  149 1   
   151  146  150 1   
   152  146  151 1   
   153  152  153 1   
   154  152  161 1   
   155  153  154 1   
   156  153  156 1   
   157  153  162 1   
   158  154  155 2   
   159  154  167 1   
   160  156  157 1   
   161  156  163 1   
   162  156  164 1   
   163  157  158 1   
   164  157  165 1   
   165  157  166 1   
   166  158  159 1   
   167  158  160 1   
   168  167  168 1   
   169  167  172 1   
   170  168  169 1   
   171  168  170 1   
   172  168  171 1   
   173  174  175 1   
   174  174  176 1   
   175  177  178 1   
   176  177  179 1   
@<TRIPOS>SUBSTRUCTURE
     1 MOL         1 TEMP              0 ****  ****    0 ROOT
