@<TRIPOS>MOLECULE
MOL
  189   185     1     0     0
SMALL
resp


@<TRIPOS>ATOM
      1 C1         -0.0380   -4.1770    5.8760 c3        1 MOL     -0.385106
      2 C2          0.8370   -3.5980    4.8010 c         1 MOL      0.772370
      3 O1          1.2800   -2.4370    4.8060 o         1 MOL     -0.644484
      4 H1         -0.4570   -3.3690    6.4760 hc        1 MOL      0.092236
      5 H2         -0.8480   -4.7460    5.4190 hc        1 MOL      0.092236
      6 H3          0.5540   -4.8340    6.5130 hc        1 MOL      0.092236
      7 N1          0.9970   -4.4230    3.8320 n         1 MOL     -0.541854
      8 C3          1.6600   -4.0620    2.4820 c3        1 MOL      0.115446
      9 C4          1.3170   -5.0980    1.4130 c         1 MOL      0.579879
     10 O2          1.0510   -6.2560    1.7580 o         1 MOL     -0.580877
     11 C5          3.1720   -4.0650    2.6390 c3        1 MOL     -0.375461
     12 C6          3.9010   -3.4840    1.4290 c         1 MOL      0.700523
     13 O3          5.1750   -3.2900    1.5100 o         1 MOL     -0.685562
     14 O4          3.2870   -2.9000    0.5220 o         1 MOL     -0.685562
     15 H4          0.4180   -5.2530    3.8800 hn        1 MOL      0.286090
     16 H5          1.2560   -3.0880    2.2180 h1        1 MOL      0.084205
     17 H6          3.5680   -5.0730    2.7840 hc        1 MOL      0.115029
     18 H7          3.3450   -3.6450    3.6320 hc        1 MOL      0.115029
     19 N2          1.2480   -4.7360    0.0750 n         1 MOL     -0.403274
     20 C7          0.7220   -5.5000   -1.0290 c3        1 MOL     -0.126008
     21 C8          1.6660   -5.4110   -2.2520 c         1 MOL      0.446507
     22 O5          1.6470   -6.3050   -3.1910 o         1 MOL     -0.566091
     23 C9         -0.6770   -4.9630   -1.4050 c3        1 MOL      0.238640
     24 C10        -1.6080   -5.0820   -0.1540 c3        1 MOL     -0.184378
     25 C11        -1.2360   -5.6910   -2.6670 c3        1 MOL     -0.171275
     26 C12        -3.0820   -4.6580   -0.4410 c3        1 MOL     -0.071049
     27 H8          1.5070   -3.7880   -0.1430 hn        1 MOL      0.435807
     28 H9          0.7140   -6.5040   -0.5980 h1        1 MOL      0.101596
     29 H10        -0.5980   -3.8990   -1.6230 hc        1 MOL      0.004844
     30 H11        -1.2270   -4.5290    0.7080 hc        1 MOL      0.037306
     31 H12        -1.5690   -6.1520    0.0870 hc        1 MOL      0.037306
     32 H13        -2.2350   -5.3480   -2.9080 hc        1 MOL      0.033725
     33 H14        -0.5500   -5.6600   -3.5160 hc        1 MOL      0.033725
     34 H15        -1.4220   -6.7390   -2.4460 hc        1 MOL      0.033725
     35 H16        -3.6180   -5.4920   -0.8780 hc        1 MOL      0.028111
     36 H17        -3.6230   -4.4910    0.4930 hc        1 MOL      0.028111
     37 H18        -3.1210   -3.8100   -1.1240 hc        1 MOL      0.028111
     38 N3          2.4380   -4.2970   -2.4260 n         1 MOL     -0.241525
     39 C13         3.1700   -3.8270   -3.5930 c3        1 MOL      0.093451
     40 C14         4.6780   -3.4740   -3.4030 c         1 MOL      0.397469
     41 O6          5.4400   -3.5860   -4.3290 o         1 MOL     -0.545506
     42 C15         2.3970   -2.5660   -4.1470 c3        1 MOL     -0.059461
     43 C16         2.2450   -1.3400   -3.3270 c         1 MOL      0.683505
     44 O7          2.8740   -1.2690   -2.2530 o         1 MOL     -0.712868
     45 O8          1.3200   -0.4950   -3.7280 o         1 MOL     -0.712868
     46 H19         2.5450   -3.6450   -1.6580 hn        1 MOL      0.044474
     47 H20         3.1400   -4.5100   -4.4340 h1        1 MOL      0.055802
     48 H21         1.4160   -2.8340   -4.5380 hc        1 MOL      0.019188
     49 H22         2.9480   -2.2640   -5.0480 hc        1 MOL      0.019188
     50 N4          5.1060   -3.1280   -2.1990 n         1 MOL     -0.216532
     51 C17         6.4860   -2.7270   -1.7980 c3        1 MOL     -0.173941
     52 C18         6.9220   -1.2910   -2.0990 c         1 MOL      0.583588
     53 O9          8.1230   -1.0880   -2.1550 o         1 MOL     -0.607160
     54 H23         4.3830   -3.0850   -1.4960 hn        1 MOL      0.157182
     55 H24         7.2510   -3.4360   -2.1290 h1        1 MOL      0.110440
     56 H25         6.4720   -2.8560   -0.7200 h1        1 MOL      0.110440
     57 N5          6.0020   -0.2880   -2.2670 n         1 MOL     -0.349016
     58 C19         6.4840    1.1030   -2.5700 c3        1 MOL     -0.023422
     59 C20         7.1050    1.9170   -1.4030 c         1 MOL      0.437364
     60 O10         7.6300    3.0270   -1.5540 o         1 MOL     -0.570866
     61 C21         5.2880    1.8960   -3.0800 c3        1 MOL     -0.156399
     62 C22         4.0590    1.8890   -2.1870 c         1 MOL      0.791270
     63 O11         4.0930    1.2690   -1.0770 o         1 MOL     -0.698892
     64 O12         3.0370    2.4730   -2.6170 o         1 MOL     -0.698892
     65 H26         5.0910   -0.5330   -1.9180 hn        1 MOL      0.237069
     66 H27         7.2160    1.1540   -3.3660 h1        1 MOL      0.110992
     67 H28         5.0780    1.6090   -4.1140 hc        1 MOL      0.045564
     68 H29         5.5990    2.9350   -3.1960 hc        1 MOL      0.045564
     69 N6          6.9470    1.4010   -0.2010 n         1 MOL     -0.168896
     70 C23         7.3180    2.1440    1.0060 c3        1 MOL     -0.164363
     71 C24         6.2910    3.1570    1.5750 c         1 MOL      0.508519
     72 O13         6.7150    3.9190    2.4810 o         1 MOL     -0.579913
     73 H30         6.4430    0.5350   -0.0950 hn        1 MOL      0.207226
     74 H31         8.1960    2.7450    0.7870 h1        1 MOL      0.083788
     75 H32         7.5800    1.4660    1.8270 h1        1 MOL      0.083788
     76 N7          5.0360    3.1330    1.0600 n         1 MOL     -0.329545
     77 C25         3.8920    3.9120    1.5970 c3        1 MOL      0.106297
     78 C26         2.6500    3.0470    1.8110 c         1 MOL      0.682697
     79 O14         2.6330    1.8810    1.4600 o         1 MOL     -0.702539
     80 C27         3.6580    5.1300    0.7280 c3        1 MOL     -0.106175
     81 C28         4.8830    6.0110    0.3420 c3        1 MOL     -0.063217
     82 C29         4.4990    7.3000   -0.4440 c         1 MOL      0.609313
     83 N8          5.5530    8.0220   -0.7830 n         1 MOL     -0.778315
     84 O15         3.3890    7.5670   -0.9190 o         1 MOL     -0.540561
     85 H33         4.8320    2.4790    0.3180 hn        1 MOL      0.214396
     86 H34         4.2330    4.2510    2.5700 h1        1 MOL      0.016581
     87 H35         3.0350    5.8340    1.2660 hc        1 MOL      0.042016
     88 H36         3.1540    4.8460   -0.1980 hc        1 MOL      0.042016
     89 H37         5.5540    5.4120   -0.2780 hc        1 MOL      0.039869
     90 H38         5.4420    6.3770    1.2000 hc        1 MOL      0.039869
     91 H39         6.4640    7.6270   -0.5810 hn        1 MOL      0.344764
     92 H40         5.4510    8.9290   -1.2000 hn        1 MOL      0.344764
     93 N9          1.6420    3.5120    2.5200 n         1 MOL     -0.596243
     94 C30         0.3530    2.7800    2.7430 c3        1 MOL      0.067012
     95 C31        -0.7170    3.2250    1.7440 c         1 MOL      0.524900
     96 O16        -0.9590    4.4530    1.5640 o         1 MOL     -0.595970
     97 C32        -0.1530    3.0700    4.2090 c3        1 MOL      0.374473
     98 C33        -1.3940    2.2150    4.4990 c3        1 MOL     -0.397544
     99 C34         0.9420    2.7190    5.1470 c3        1 MOL     -0.397544
    100 H41         1.6520    4.4030    3.0040 hn        1 MOL      0.314734
    101 H42         0.5490    1.7180    2.5830 h1        1 MOL      0.073399
    102 H43        -0.4340    4.1160    4.2840 hc        1 MOL     -0.061622
    103 H44        -1.2120    1.1440    4.4520 hc        1 MOL      0.083230
    104 H45        -1.6180    2.3950    5.5480 hc        1 MOL      0.083230
    105 H46        -2.1350    2.5240    3.7510 hc        1 MOL      0.083230
    106 H47         1.4050    1.7810    4.8180 hc        1 MOL      0.083230
    107 H48         1.7040    3.5010    5.1400 hc        1 MOL      0.083230
    108 H49         0.5210    2.6340    6.1470 hc        1 MOL      0.083230
    109 N10        -1.2130    2.3020    0.8970 n         1 MOL     -0.318308
    110 C35        -2.2860    2.6110   -0.0420 c3        1 MOL      0.148211
    111 C36        -3.6520    2.5740    0.6400 c         1 MOL      0.151805
    112 O17        -3.8250    2.0790    1.7370 o         1 MOL     -0.321193
    113 C37        -2.2080    1.5670   -1.1860 c3        1 MOL     -0.324188
    114 C38        -3.3730    1.6300   -2.1290 c         1 MOL      0.755492
    115 N11        -3.4680    2.7220   -2.8700 n         1 MOL     -0.777658
    116 O18        -4.1680    0.7340   -2.2010 o         1 MOL     -0.589293
    117 H50        -0.8920    1.3380    0.9550 hn        1 MOL      0.263202
    118 H51        -2.1920    3.5930   -0.5060 h1        1 MOL      0.059306
    119 H52        -2.0790    0.5540   -0.8380 hc        1 MOL      0.112596
    120 H53        -1.3100    1.8170   -1.7590 hc        1 MOL      0.112596
    121 H54        -2.8730    3.5380   -2.8050 hn        1 MOL      0.343808
    122 H55        -4.1720    2.8050   -3.5910 hn        1 MOL      0.343808
    123 N12        -4.7530    2.9700   -0.0190 n         1 MOL     -0.060579
    124 C39        -6.1180    2.8160    0.4530 c3        1 MOL      0.037780
    125 C40        -6.5860    1.3870    0.6940 c         1 MOL      0.382171
    126 O19        -7.3200    1.1510    1.6610 o         1 MOL     -0.556192
    127 C41        -6.9930    3.6270   -0.5100 c3        1 MOL     -0.220005
    128 C42        -6.8830    3.2850   -2.0220 ca        1 MOL     -0.045134
    129 C43        -6.0740    4.0330   -2.8740 ca        1 MOL     -0.107099
    130 C44        -7.6920    2.1900   -2.4550 ca        1 MOL     -0.107099
    131 C45        -6.1340    3.7360   -4.2610 ca        1 MOL     -0.271270
    132 C46        -7.6770    1.9150   -3.8190 ca        1 MOL     -0.271270
    133 C47        -6.9510    2.7040   -4.7300 ca        1 MOL      0.399307
    134 O20        -7.0090    2.3970   -6.0300 oh        1 MOL     -0.575844
    135 H56        -4.6040    3.4810   -0.8760 hn        1 MOL      0.083924
    136 H57        -6.2000    3.3630    1.3910 h1        1 MOL      0.059328
    137 H58        -6.7430    4.6750   -0.3300 hc        1 MOL      0.086271
    138 H59        -8.0530    3.4930   -0.2800 hc        1 MOL      0.086271
    139 H60        -5.5530    4.9060   -2.4930 ha        1 MOL      0.129471
    140 H61        -8.2950    1.5980   -1.7840 ha        1 MOL      0.129471
    141 H62        -5.6690    4.4310   -4.9530 ha        1 MOL      0.108326
    142 H63        -8.3380    1.1470   -4.1980 ha        1 MOL      0.108326
    143 H64        -7.6330    1.6980   -6.2320 ho        1 MOL      0.430559
    144 N13        -6.1400    0.3670   -0.0880 n         1 MOL      0.002014
    145 C48        -6.4960   -1.0190    0.1010 c3        1 MOL     -0.178788
    146 C49        -5.6770   -1.7320    1.2120 c         1 MOL      0.324984
    147 O21        -6.0960   -2.7770    1.7800 o         1 MOL     -0.506144
    148 C50        -6.1010   -1.7100   -1.2730 c3        1 MOL      0.191622
    149 C51        -7.0360   -1.3710   -2.4370 c3        1 MOL     -0.238560
    150 C52        -8.5450   -1.6390   -2.0070 c         1 MOL      0.641442
    151 O22        -8.9100   -2.3720   -1.0350 o         1 MOL     -0.687623
    152 O23        -9.4070   -0.9790   -2.6570 o         1 MOL     -0.687623
    153 H65        -5.6010    0.6060   -0.9140 hn        1 MOL      0.300317
    154 H66        -7.5560   -1.1110    0.3300 h1        1 MOL      0.173573
    155 H67        -6.2090   -2.7710   -1.0770 hc        1 MOL     -0.047720
    156 H68        -5.0400   -1.4810   -1.3620 hc        1 MOL     -0.047720
    157 H69        -6.7800   -1.9020   -3.3480 hc        1 MOL      0.036053
    158 H70        -6.8400   -0.3230   -2.6480 hc        1 MOL      0.036053
    159 N14        -4.6190   -1.0470    1.6830 n         1 MOL     -0.000607
    160 C53        -3.7530   -1.4510    2.7890 c3        1 MOL      0.015394
    161 C54        -4.3160   -0.8370    4.1140 c         1 MOL      0.399673
    162 O24        -4.5100   -1.5090    5.1320 o         1 MOL     -0.564082
    163 C55        -2.2610   -0.9770    2.6020 c3        1 MOL      0.038330
    164 C56        -1.5910   -1.8760    1.5640 c3        1 MOL      0.194472
    165 C57        -0.2340   -1.2940    1.0470 c         1 MOL      0.646698
    166 O25         0.3460   -1.7870    0.0350 o         1 MOL     -0.758104
    167 O26         0.2710   -0.2540    1.4940 o         1 MOL     -0.758104
    168 H71        -4.4190   -0.2470    1.1150 hn        1 MOL     -0.042842
    169 H72        -3.6850   -2.5310    2.9030 h1        1 MOL      0.030335
    170 H73        -1.7250   -1.1770    3.5340 hc        1 MOL     -0.007828
    171 H74        -2.2230    0.0750    2.3270 hc        1 MOL     -0.007828
    172 H75        -2.3050   -1.9790    0.7440 hc        1 MOL     -0.048498
    173 H76        -1.3920   -2.8480    2.0190 hc        1 MOL     -0.048498
    174 N15        -4.5120    0.4660    4.0230 n         1 MOL     -0.033549
    175 C58        -4.9780    1.2890    5.1620 c3        1 MOL     -0.124739
    176 H77        -4.1830    1.9710    5.4660 h1        1 MOL      0.051671
    177 H78        -5.8540    1.8640    4.8610 h1        1 MOL      0.051671
    178 H79        -5.2380    0.6400    5.9980 h1        1 MOL      0.051671
    179 H80        -4.6070    0.8310    3.0860 hn        1 MOL      0.058877
    180 Ca1         2.4720   -0.3440    0.0730 Ca        1 MOL      1.809887
    181 O27         2.5750   -0.8780    2.7920 oh        1 MOL     -0.876693
    182 H81         1.8580   -1.1590    3.3490 ho        1 MOL      0.425489
    183 H82         3.0060   -0.1810    3.2900 ho        1 MOL      0.425489
    184 O28         5.3440   -0.8080    0.7180 oh        1 MOL     -0.876693
    185 H83         5.3770   -1.7630    0.8200 ho        1 MOL      0.425489
    186 H84         5.4350   -0.4730    1.6090 ho        1 MOL      0.425489
    187 O29         1.0290    1.1160   -1.6190 oh        1 MOL     -0.876693
    188 H85         0.7200    0.6290   -2.3770 ho        1 MOL      0.425489
    189 H86         1.6640    1.7450   -1.9870 ho        1 MOL      0.425489
@<TRIPOS>BOND
     1    1    2 1   
     2    1    4 1   
     3    1    5 1   
     4    1    6 1   
     5    2    3 2   
     6    2    7 1   
     7    7    8 1   
     8    7   15 1   
     9    8    9 1   
    10    8   11 1   
    11    8   16 1   
    12    9   10 2   
    13    9   19 1   
    14   11   12 1   
    15   11   17 1   
    16   11   18 1   
    17   12   13 1   
    18   12   14 1   
    19   19   20 1   
    20   19   27 1   
    21   20   21 1   
    22   20   23 1   
    23   20   28 1   
    24   21   22 2   
    25   21   38 1   
    26   23   24 1   
    27   23   25 1   
    28   23   29 1   
    29   24   26 1   
    30   24   30 1   
    31   24   31 1   
    32   25   32 1   
    33   25   33 1   
    34   25   34 1   
    35   26   35 1   
    36   26   36 1   
    37   26   37 1   
    38   38   39 1   
    39   38   46 1   
    40   39   40 1   
    41   39   42 1   
    42   39   47 1   
    43   40   41 2   
    44   40   50 1   
    45   42   43 1   
    46   42   48 1   
    47   42   49 1   
    48   43   44 1   
    49   43   45 1   
    50   50   51 1   
    51   50   54 1   
    52   51   52 1   
    53   51   55 1   
    54   51   56 1   
    55   52   53 2   
    56   52   57 1   
    57   57   58 1   
    58   57   65 1   
    59   58   59 1   
    60   58   61 1   
    61   58   66 1   
    62   59   60 2   
    63   59   69 1   
    64   61   62 1   
    65   61   67 1   
    66   61   68 1   
    67   62   63 1   
    68   62   64 1   
    69   69   70 1   
    70   69   73 1   
    71   70   71 1   
    72   70   74 1   
    73   70   75 1   
    74   71   72 2   
    75   71   76 1   
    76   76   77 1   
    77   76   85 1   
    78   77   78 1   
    79   77   80 1   
    80   77   86 1   
    81   78   79 2   
    82   78   93 1   
    83   80   81 1   
    84   80   87 1   
    85   80   88 1   
    86   81   82 1   
    87   81   89 1   
    88   81   90 1   
    89   82   83 1   
    90   82   84 2   
    91   83   91 1   
    92   83   92 1   
    93   93   94 1   
    94   93  100 1   
    95   94   95 1   
    96   94   97 1   
    97   94  101 1   
    98   95   96 2   
    99   95  109 1   
   100   97   98 1   
   101   97   99 1   
   102   97  102 1   
   103   98  103 1   
   104   98  104 1   
   105   98  105 1   
   106   99  106 1   
   107   99  107 1   
   108   99  108 1   
   109  109  110 1   
   110  109  117 1   
   111  110  111 1   
   112  110  113 1   
   113  110  118 1   
   114  111  112 2   
   115  111  123 1   
   116  113  114 1   
   117  113  119 1   
   118  113  120 1   
   119  114  115 1   
   120  114  116 2   
   121  115  121 1   
   122  115  122 1   
   123  123  124 1   
   124  123  135 1   
   125  124  125 1   
   126  124  127 1   
   127  124  136 1   
   128  125  126 2   
   129  125  144 1   
   130  127  128 1   
   131  127  137 1   
   132  127  138 1   
   133  128  129 ar  
   134  128  130 ar  
   135  129  131 ar  
   136  129  139 1   
   137  130  132 ar  
   138  130  140 1   
   139  131  133 ar  
   140  131  141 1   
   141  132  133 ar  
   142  132  142 1   
   143  133  134 1   
   144  134  143 1   
   145  144  145 1   
   146  144  153 1   
   147  145  146 1   
   148  145  148 1   
   149  145  154 1   
   150  146  147 2   
   151  146  159 1   
   152  148  149 1   
   153  148  155 1   
   154  148  156 1   
   155  149  150 1   
   156  149  157 1   
   157  149  158 1   
   158  150  151 1   
   159  150  152 1   
   160  159  160 1   
   161  159  168 1   
   162  160  161 1   
   163  160  163 1   
   164  160  169 1   
   165  161  162 2   
   166  161  174 1   
   167  163  164 1   
   168  163  170 1   
   169  163  171 1   
   170  164  165 1   
   171  164  172 1   
   172  164  173 1   
   173  165  166 1   
   174  165  167 1   
   175  174  175 1   
   176  174  179 1   
   177  175  176 1   
   178  175  177 1   
   179  175  178 1   
   180  181  182 1   
   181  181  183 1   
   182  184  185 1   
   183  184  186 1   
   184  187  188 1   
   185  187  189 1   
@<TRIPOS>SUBSTRUCTURE
     1 MOL         1 TEMP              0 ****  ****    0 ROOT
