@<TRIPOS>MOLECULE
MOL
  189   185     1     0     0
SMALL
resp


@<TRIPOS>ATOM
      1 C1          1.1400   -1.9350    6.6750 c3        1 MOL     -0.553185
      2 C2          1.3520   -1.8690    5.1290 c         1 MOL      0.641178
      3 O1          0.7250   -1.0420    4.4060 o         1 MOL     -0.531959
      4 H1          0.1070   -2.2110    6.8880 hc        1 MOL      0.150302
      5 H2          1.8110   -2.6790    7.1040 hc        1 MOL      0.150302
      6 H3          1.3510   -0.9590    7.1140 hc        1 MOL      0.150302
      7 N1          2.1890   -2.7970    4.6000 n         1 MOL     -0.490871
      8 C3          2.6110   -2.8420    3.1680 c3        1 MOL      0.104856
      9 C4          2.2520   -4.2230    2.5870 c         1 MOL      0.517322
     10 O2          2.3720   -5.2190    3.3010 o         1 MOL     -0.587673
     11 C5          4.1190   -2.5770    3.0510 c3        1 MOL     -0.113108
     12 C6          4.5570   -2.8200    1.6250 c         1 MOL      0.599049
     13 O3          5.3210   -3.8280    1.4490 o         1 MOL     -0.656299
     14 O4          4.0530   -2.2270    0.6760 o         1 MOL     -0.656299
     15 H4          2.8010   -3.3140    5.2170 hn        1 MOL      0.302811
     16 H5          2.1020   -2.1050    2.5540 h1        1 MOL     -0.028430
     17 H6          4.7550   -3.1840    3.6960 hc        1 MOL      0.006784
     18 H7          4.3730   -1.5970    3.4470 hc        1 MOL      0.006784
     19 N2          2.0020   -4.3370    1.2400 n         1 MOL     -0.036321
     20 C7          1.8090   -5.5660    0.4960 c3        1 MOL     -0.179963
     21 C8          2.5840   -5.5800   -0.8950 c         1 MOL      0.460651
     22 O5          2.4560   -6.5110   -1.6610 o         1 MOL     -0.554511
     23 C9          0.3330   -5.8490    0.2390 c3        1 MOL      0.118978
     24 C10        -0.3030   -4.8370   -0.7850 c3        1 MOL      0.098589
     25 C11        -0.4240   -5.7510    1.5550 c3        1 MOL     -0.293307
     26 C12        -1.8520   -4.9520   -0.8620 c3        1 MOL     -0.155770
     27 H8          1.9430   -3.4590    0.7400 hn        1 MOL      0.204280
     28 H9          2.0670   -6.3820    1.1690 h1        1 MOL      0.109072
     29 H10         0.1260   -6.8210   -0.2030 hc        1 MOL      0.006049
     30 H11         0.0270   -5.0680   -1.8000 hc        1 MOL      0.010660
     31 H12        -0.0400   -3.8190   -0.5410 hc        1 MOL      0.010660
     32 H13        -1.5130   -5.6890    1.5060 hc        1 MOL      0.059691
     33 H14        -0.1570   -6.5690    2.2240 hc        1 MOL      0.059691
     34 H15        -0.2200   -4.7860    2.0380 hc        1 MOL      0.059691
     35 H16        -2.0840   -5.9700   -1.1790 hc        1 MOL      0.032261
     36 H17        -2.3570   -4.5980    0.0310 hc        1 MOL      0.032261
     37 H18        -2.1600   -4.3390   -1.7070 hc        1 MOL      0.032261
     38 N3          3.3760   -4.5300   -1.1990 n         1 MOL     -0.184921
     39 C13         3.9430   -4.2960   -2.5430 c3        1 MOL     -0.046941
     40 C14         5.2890   -3.5920   -2.5250 c         1 MOL      0.386091
     41 O6          6.0910   -3.7470   -3.4790 o         1 MOL     -0.564303
     42 C15         2.9530   -3.5830   -3.5110 c3        1 MOL     -0.239441
     43 C16         2.3030   -2.2900   -2.9900 c         1 MOL      0.760109
     44 O7          2.8580   -1.5810   -2.1290 o         1 MOL     -0.714812
     45 O8          1.1830   -2.0060   -3.4180 o         1 MOL     -0.714812
     46 H19         3.5050   -3.8360   -0.4750 hn        1 MOL     -0.007582
     47 H20         4.1450   -5.2900   -2.9430 h1        1 MOL      0.114704
     48 H21         2.1530   -4.2790   -3.7850 hc        1 MOL      0.079567
     49 H22         3.4010   -3.3920   -4.4970 hc        1 MOL      0.079567
     50 N4          5.6340   -2.8450   -1.4280 n         1 MOL     -0.130922
     51 C17         7.0680   -2.4840   -1.0960 c3        1 MOL     -0.372204
     52 C18         7.3920   -1.0960   -1.5660 c         1 MOL      0.606694
     53 O9          8.5760   -0.7560   -1.5600 o         1 MOL     -0.638155
     54 H23         4.9790   -2.7610   -0.6580 hn        1 MOL      0.332461
     55 H24         7.7020   -3.1870   -1.6420 h1        1 MOL      0.154359
     56 H25         7.0910   -2.4880   -0.0060 h1        1 MOL      0.154359
     57 N5          6.4620   -0.2250   -2.0300 n         1 MOL     -0.186575
     58 C19         6.7300    1.0720   -2.6560 c3        1 MOL     -0.082274
     59 C20         6.9860    2.1890   -1.6580 c         1 MOL      0.517745
     60 O10         7.1630    3.2880   -2.0470 o         1 MOL     -0.549801
     61 C21         5.5940    1.4510   -3.5190 c3        1 MOL     -0.079392
     62 C22         4.2030    1.4020   -2.9320 c         1 MOL      0.749575
     63 O11         4.0050    1.3000   -1.6980 o         1 MOL     -0.691055
     64 O12         3.2720    1.5900   -3.7320 o         1 MOL     -0.691055
     65 H26         5.4930   -0.4710   -1.8730 hn        1 MOL      0.086802
     66 H27         7.6260    0.9710   -3.2630 h1        1 MOL      0.105189
     67 H28         5.5330    0.6620   -4.2610 hc        1 MOL      0.025136
     68 H29         5.7770    2.3670   -4.0960 hc        1 MOL      0.025136
     69 N6          6.9370    1.9520   -0.3630 n         1 MOL     -0.352503
     70 C23         7.1960    2.9270    0.6320 c3        1 MOL     -0.132594
     71 C24         6.0400    3.8670    1.0540 c         1 MOL      0.416116
     72 O13         6.2330    4.8230    1.7740 o         1 MOL     -0.538171
     73 H30         6.8300    0.9810   -0.0840 hn        1 MOL      0.277716
     74 H31         7.9450    3.6430    0.3010 h1        1 MOL      0.095295
     75 H32         7.6700    2.5440    1.5450 h1        1 MOL      0.095295
     76 N7          4.8050    3.4840    0.6240 n         1 MOL     -0.174493
     77 C25         3.6290    4.3290    0.8300 c3        1 MOL     -0.217329
     78 C26         2.4070    3.4790    1.1080 c         1 MOL      0.594219
     79 O14         2.2790    2.3200    0.6720 o         1 MOL     -0.568878
     80 C27         3.3480    5.4190   -0.2590 c3        1 MOL      0.056997
     81 C28         4.4980    6.3950   -0.5420 c3        1 MOL     -0.279103
     82 C29         4.0660    7.4410   -1.5610 c         1 MOL      0.661538
     83 N8          4.3240    7.2580   -2.8120 n         1 MOL     -0.768374
     84 O15         3.5810    8.5000   -1.1900 o         1 MOL     -0.596535
     85 H33         4.8030    2.7720   -0.0960 hn        1 MOL      0.225112
     86 H34         3.7430    4.8920    1.7630 h1        1 MOL      0.091251
     87 H35         2.4360    5.9450    0.0130 hc        1 MOL      0.055681
     88 H36         3.0730    4.9650   -1.2190 hc        1 MOL      0.055681
     89 H37         5.3680    5.8000   -0.8120 hc        1 MOL      0.110084
     90 H38         4.6910    6.8880    0.4190 hc        1 MOL      0.110084
     91 H39         4.6500    6.4190   -3.2640 hn        1 MOL      0.353379
     92 H40         4.0450    7.9910   -3.4570 hn        1 MOL      0.353379
     93 N9          1.4300    4.0230    1.9060 n         1 MOL     -0.517882
     94 C30         0.0810    3.3550    2.0320 c3        1 MOL      0.037823
     95 C31        -0.7380    3.5990    0.7740 c         1 MOL      0.357362
     96 O16        -0.8300    4.7440    0.3460 o         1 MOL     -0.572737
     97 C32        -0.5750    3.6220    3.3340 c3        1 MOL      0.180078
     98 C33        -1.6410    2.5520    3.7100 c3        1 MOL     -0.253894
     99 C34         0.4340    3.6850    4.4110 c3        1 MOL     -0.253894
    100 H41         1.4850    4.9540    2.2910 hn        1 MOL      0.329287
    101 H42         0.1940    2.2690    2.0890 h1        1 MOL      0.180878
    102 H43        -1.0650    4.5870    3.3040 hc        1 MOL     -0.008910
    103 H44        -1.1670    1.5750    3.8420 hc        1 MOL      0.051602
    104 H45        -2.2110    2.8070    4.6030 hc        1 MOL      0.051602
    105 H46        -2.4040    2.4070    2.9420 hc        1 MOL      0.051602
    106 H47         1.1230    4.5130    4.2510 hc        1 MOL      0.051602
    107 H48        -0.2380    3.9060    5.2470 hc        1 MOL      0.051602
    108 H49         0.9460    2.7410    4.5940 hc        1 MOL      0.051602
    109 N10        -1.2940    2.5820    0.1570 n         1 MOL      0.025040
    110 C35        -2.4000    2.7680   -0.7620 c3        1 MOL      0.045495
    111 C36        -3.7460    2.3050   -0.1920 c         1 MOL      0.357164
    112 O17        -3.8960    1.8810    0.8970 o         1 MOL     -0.414498
    113 C37        -1.9570    2.2860   -2.1370 c3        1 MOL     -0.143960
    114 C38        -2.5860    1.0440   -2.5550 c         1 MOL      0.595551
    115 N11        -2.2400   -0.0630   -1.9930 n         1 MOL     -0.662300
    116 O18        -3.4700    0.9760   -3.4320 o         1 MOL     -0.624670
    117 H50        -0.9760    1.6390    0.3110 hn        1 MOL     -0.003195
    118 H51        -2.5070    3.8460   -0.9290 h1        1 MOL      0.052115
    119 H52        -0.8880    2.0830   -2.0710 hc        1 MOL      0.067381
    120 H53        -2.0520    2.9810   -2.9640 hc        1 MOL      0.067381
    121 H54        -1.4680   -0.0600   -1.3440 hn        1 MOL      0.372537
    122 H55        -2.4220   -0.9540   -2.4340 hn        1 MOL      0.372537
    123 N12        -4.7800    2.4660   -0.9920 n         1 MOL     -0.347288
    124 C39        -6.2730    2.2590   -0.6070 c3        1 MOL      0.078240
    125 C40        -6.5450    0.8610   -0.0600 c         1 MOL      0.274922
    126 O19        -7.0740    0.6190    1.0390 o         1 MOL     -0.479613
    127 C41        -7.2040    2.6690   -1.7940 c3        1 MOL     -0.130363
    128 C42        -8.6680    2.4030   -1.4740 ca        1 MOL     -0.078641
    129 C43        -9.4900    3.4760   -1.0570 ca        1 MOL     -0.020276
    130 C44        -9.2620    1.1860   -1.8010 ca        1 MOL     -0.020276
    131 C45       -10.8610    3.3870   -1.0840 ca        1 MOL     -0.337679
    132 C46       -10.6940    1.0560   -1.8520 ca        1 MOL     -0.337679
    133 C47       -11.4850    2.1650   -1.4600 ca        1 MOL      0.418648
    134 O20       -12.8360    1.9700   -1.3140 oh        1 MOL     -0.595344
    135 H56        -4.5820    2.7700   -1.9340 hn        1 MOL      0.211942
    136 H57        -6.4620    3.0220    0.1480 h1        1 MOL      0.094538
    137 H58        -6.8740    2.1700   -2.7110 hc        1 MOL      0.077394
    138 H59        -7.1420    3.7340   -1.9930 hc        1 MOL      0.077394
    139 H60        -8.9900    4.3290   -0.6410 ha        1 MOL      0.093201
    140 H61        -8.6280    0.4140   -2.2060 ha        1 MOL      0.093201
    141 H62       -11.4380    4.1620   -0.6020 ha        1 MOL      0.154775
    142 H63       -11.1440    0.1730   -2.2670 ha        1 MOL      0.154775
    143 H64       -13.1790    1.0790   -1.4310 ho        1 MOL      0.420467
    144 N13        -6.1720   -0.2390   -0.7750 n         1 MOL     -0.050665
    145 C48        -6.1740   -1.7200   -0.2530 c3        1 MOL     -0.138967
    146 C49        -5.1120   -1.9620    0.8480 c         1 MOL      0.409330
    147 O21        -5.0890   -3.0730    1.3660 o         1 MOL     -0.546031
    148 C50        -6.1720   -2.8030   -1.4020 c3        1 MOL      0.174017
    149 C51        -7.4600   -2.8360   -2.2750 c3        1 MOL     -0.360803
    150 C52        -7.3470   -3.9170   -3.3110 c         1 MOL      0.708229
    151 O22        -6.2370   -4.4600   -3.6230 o         1 MOL     -0.733718
    152 O23        -8.3500   -4.4890   -3.7970 o         1 MOL     -0.733718
    153 H65        -5.6780   -0.0280   -1.6280 hn        1 MOL      0.197992
    154 H66        -7.0920   -1.8630    0.3380 h1        1 MOL      0.110678
    155 H67        -6.0910   -3.8040   -0.9840 hc        1 MOL      0.022741
    156 H68        -5.2830   -2.5690   -1.9870 hc        1 MOL      0.022741
    157 H69        -7.7860   -1.8630   -2.6690 hc        1 MOL      0.056329
    158 H70        -8.3390   -3.1380   -1.6990 hc        1 MOL      0.056329
    159 N14        -4.3960   -0.9770    1.3450 n         1 MOL     -0.194898
    160 C53        -3.5830   -1.0720    2.6000 c3        1 MOL     -0.077691
    161 C54        -4.2670   -0.2450    3.7250 c         1 MOL      0.433008
    162 O24        -3.7560   -0.2590    4.8440 o         1 MOL     -0.545776
    163 C55        -2.1480   -0.6350    2.3890 c3        1 MOL      0.129908
    164 C56        -1.5960   -1.6070    1.3160 c3        1 MOL     -0.034662
    165 C57        -0.2290   -1.1000    0.7820 c         1 MOL      0.755958
    166 O25         0.7790   -1.8140    0.6940 o         1 MOL     -0.756140
    167 O26        -0.2800   -0.0010    0.2200 o         1 MOL     -0.756140
    168 H71        -4.3330   -0.1290    0.8010 hn        1 MOL      0.056546
    169 H72        -3.5150   -2.1050    2.9470 h1        1 MOL      0.112991
    170 H73        -1.5170   -0.7040    3.2680 hc        1 MOL      0.038637
    171 H74        -2.1160    0.4040    2.0480 hc        1 MOL      0.038637
    172 H75        -2.2100   -1.7360    0.4260 hc        1 MOL      0.001483
    173 H76        -1.4040   -2.5770    1.7870 hc        1 MOL      0.001483
    174 N15        -5.4520    0.4480    3.4900 n         1 MOL     -0.191468
    175 C58        -5.9980    1.3520    4.5250 c3        1 MOL     -0.106558
    176 H77        -6.8520    0.8760    5.0080 h1        1 MOL      0.053142
    177 H78        -5.2290    1.5590    5.2690 h1        1 MOL      0.053142
    178 H79        -6.3180    2.2850    4.0610 h1        1 MOL      0.053142
    179 H80        -5.9900    0.4140    2.6420 hn        1 MOL      0.185620
    180 Ca1         2.5040   -0.0860   -0.1220 Ca        1 MOL      1.784159
    181 O27         2.2530    0.4410    2.8680 oh        1 MOL     -0.901167
    182 H81         3.0010    0.5120    3.4610 ho        1 MOL      0.413996
    183 H82         1.5570    0.0830    3.4210 ho        1 MOL      0.413996
    184 O28         1.2150    0.6900   -2.3650 oh        1 MOL     -0.901167
    185 H83         1.2270   -0.1570   -2.8010 ho        1 MOL      0.413996
    186 H84         1.7480    1.2540   -2.9340 ho        1 MOL      0.413996
    187 O29         4.8780    0.4130    1.1680 oh        1 MOL     -0.901167
    188 H85         5.5530   -0.2130    1.4510 ho        1 MOL      0.413996
    189 H86         4.7290    0.9630    1.9360 ho        1 MOL      0.413996
@<TRIPOS>BOND
     1    1    2 1   
     2    1    4 1   
     3    1    5 1   
     4    1    6 1   
     5    2    3 2   
     6    2    7 1   
     7    7    8 1   
     8    7   15 1   
     9    8    9 1   
    10    8   11 1   
    11    8   16 1   
    12    9   10 2   
    13    9   19 1   
    14   11   12 1   
    15   11   17 1   
    16   11   18 1   
    17   12   13 1   
    18   12   14 1   
    19   19   20 1   
    20   19   27 1   
    21   20   21 1   
    22   20   23 1   
    23   20   28 1   
    24   21   22 2   
    25   21   38 1   
    26   23   24 1   
    27   23   25 1   
    28   23   29 1   
    29   24   26 1   
    30   24   30 1   
    31   24   31 1   
    32   25   32 1   
    33   25   33 1   
    34   25   34 1   
    35   26   35 1   
    36   26   36 1   
    37   26   37 1   
    38   38   39 1   
    39   38   46 1   
    40   39   40 1   
    41   39   42 1   
    42   39   47 1   
    43   40   41 2   
    44   40   50 1   
    45   42   43 1   
    46   42   48 1   
    47   42   49 1   
    48   43   44 1   
    49   43   45 1   
    50   50   51 1   
    51   50   54 1   
    52   51   52 1   
    53   51   55 1   
    54   51   56 1   
    55   52   53 2   
    56   52   57 1   
    57   57   58 1   
    58   57   65 1   
    59   58   59 1   
    60   58   61 1   
    61   58   66 1   
    62   59   60 2   
    63   59   69 1   
    64   61   62 1   
    65   61   67 1   
    66   61   68 1   
    67   62   63 1   
    68   62   64 1   
    69   69   70 1   
    70   69   73 1   
    71   70   71 1   
    72   70   74 1   
    73   70   75 1   
    74   71   72 2   
    75   71   76 1   
    76   76   77 1   
    77   76   85 1   
    78   77   78 1   
    79   77   80 1   
    80   77   86 1   
    81   78   79 2   
    82   78   93 1   
    83   80   81 1   
    84   80   87 1   
    85   80   88 1   
    86   81   82 1   
    87   81   89 1   
    88   81   90 1   
    89   82   83 1   
    90   82   84 2   
    91   83   91 1   
    92   83   92 1   
    93   93   94 1   
    94   93  100 1   
    95   94   95 1   
    96   94   97 1   
    97   94  101 1   
    98   95   96 2   
    99   95  109 1   
   100   97   98 1   
   101   97   99 1   
   102   97  102 1   
   103   98  103 1   
   104   98  104 1   
   105   98  105 1   
   106   99  106 1   
   107   99  107 1   
   108   99  108 1   
   109  109  110 1   
   110  109  117 1   
   111  110  111 1   
   112  110  113 1   
   113  110  118 1   
   114  111  112 2   
   115  111  123 1   
   116  113  114 1   
   117  113  119 1   
   118  113  120 1   
   119  114  115 1   
   120  114  116 2   
   121  115  121 1   
   122  115  122 1   
   123  123  124 1   
   124  123  135 1   
   125  124  125 1   
   126  124  127 1   
   127  124  136 1   
   128  125  126 2   
   129  125  144 1   
   130  127  128 1   
   131  127  137 1   
   132  127  138 1   
   133  128  129 ar  
   134  128  130 ar  
   135  129  131 ar  
   136  129  139 1   
   137  130  132 ar  
   138  130  140 1   
   139  131  133 ar  
   140  131  141 1   
   141  132  133 ar  
   142  132  142 1   
   143  133  134 1   
   144  134  143 1   
   145  144  145 1   
   146  144  153 1   
   147  145  146 1   
   148  145  148 1   
   149  145  154 1   
   150  146  147 2   
   151  146  159 1   
   152  148  149 1   
   153  148  155 1   
   154  148  156 1   
   155  149  150 1   
   156  149  157 1   
   157  149  158 1   
   158  150  151 1   
   159  150  152 1   
   160  159  160 1   
   161  159  168 1   
   162  160  161 1   
   163  160  163 1   
   164  160  169 1   
   165  161  162 2   
   166  161  174 1   
   167  163  164 1   
   168  163  170 1   
   169  163  171 1   
   170  164  165 1   
   171  164  172 1   
   172  164  173 1   
   173  165  166 1   
   174  165  167 1   
   175  174  175 1   
   176  174  179 1   
   177  175  176 1   
   178  175  177 1   
   179  175  178 1   
   180  181  182 1   
   181  181  183 1   
   182  184  185 1   
   183  184  186 1   
   184  187  188 1   
   185  187  189 1   
@<TRIPOS>SUBSTRUCTURE
     1 MOL         1 TEMP              0 ****  ****    0 ROOT
