@<TRIPOS>MOLECULE
MOL
  179   176     1     0     0
SMALL
resp


@<TRIPOS>ATOM
      1 C1         -1.8390   -2.4140    6.7510 c3        1 MOL     -0.372457
      2 C2         -1.8650   -2.2470    5.2790 c         1 MOL      0.699327
      3 O1         -2.7210   -1.5670    4.6930 o         1 MOL     -0.588345
      4 H1         -2.7390   -2.9380    7.0740 hc        1 MOL      0.096849
      5 H2         -0.9610   -2.9940    7.0370 hc        1 MOL      0.096849
      6 H3         -1.7990   -1.4350    7.2290 hc        1 MOL      0.096849
      7 N1         -0.9430   -2.8250    4.5180 n         1 MOL     -0.481548
      8 C3         -0.6820   -2.5600    3.0740 c3        1 MOL      0.060812
      9 C4         -0.8770   -3.8700    2.2590 c         1 MOL      0.546853
     10 O2         -0.4570   -4.9300    2.7180 o         1 MOL     -0.525262
     11 C5          0.8140   -2.1630    2.9190 c3        1 MOL     -0.230981
     12 C6          1.1130   -1.7300    1.4900 c         1 MOL      0.697938
     13 O3          2.2440   -1.4620    1.1990 o         1 MOL     -0.723264
     14 O4          0.2520   -1.5510    0.5590 o         1 MOL     -0.723264
     15 H4         -0.3540   -3.5400    4.9250 hn        1 MOL      0.276876
     16 H5         -1.2390   -1.7270    2.6300 h1        1 MOL      0.074534
     17 H6          1.5060   -2.9310    3.2590 hc        1 MOL      0.076242
     18 H7          0.9800   -1.3040    3.5740 hc        1 MOL      0.076242
     19 N2         -1.5950   -3.8860    1.1180 n         1 MOL     -0.369566
     20 C7         -1.9500   -5.0520    0.3490 c3        1 MOL     -0.099783
     21 C8         -0.7070   -5.7980   -0.2390 c         1 MOL      0.506000
     22 O5         -0.7540   -7.0060   -0.3110 o         1 MOL     -0.555875
     23 C9         -3.0020   -4.6620   -0.7190 c3        1 MOL     -0.053216
     24 C10        -3.5470   -5.7550   -1.6390 c3        1 MOL      0.014450
     25 C11        -4.8030   -5.3880   -2.5410 c3        1 MOL     -0.143549
     26 C12        -6.1080   -5.4900   -1.7410 c3        1 MOL      0.095610
     27 N3         -7.2950   -5.4450   -2.5840 n4        1 MOL     -0.312647
     28 H8         -1.8840   -3.0060    0.7130 hn        1 MOL      0.223119
     29 H9         -2.3040   -5.7820    1.0760 h1        1 MOL      0.117905
     30 H10        -2.6790   -3.8020   -1.3090 hc        1 MOL      0.061051
     31 H11        -3.9080   -4.3320   -0.2140 hc        1 MOL      0.061051
     32 H12        -3.8070   -6.5870   -0.9860 hc        1 MOL      0.032401
     33 H13        -2.6990   -6.0970   -2.2280 hc        1 MOL      0.032401
     34 H14        -4.7950   -6.0630   -3.3900 hc        1 MOL      0.057242
     35 H15        -4.6480   -4.3930   -2.9490 hc        1 MOL      0.057242
     36 H16        -6.0120   -4.6490   -1.0480 hx        1 MOL      0.066160
     37 H17        -6.0300   -6.4340   -1.2100 hx        1 MOL      0.066160
     38 H18        -7.4360   -6.2870   -3.1180 hn        1 MOL      0.319459
     39 H19        -8.0860   -5.2200   -1.9990 hn        1 MOL      0.319459
     40 H20        -7.0980   -4.8230   -3.3530 hn        1 MOL      0.319459
     41 N4          0.3380   -5.0470   -0.5950 n         1 MOL     -0.258703
     42 C13         1.5140   -5.6320   -1.2100 c3        1 MOL      0.138197
     43 C14         2.8300   -5.4370   -0.4220 c         1 MOL      0.370022
     44 O6          3.8340   -5.9790   -0.8240 o         1 MOL     -0.523563
     45 C15         1.5850   -5.2660   -2.6990 c3        1 MOL     -0.438090
     46 C16         1.7860   -3.8390   -3.1160 c         1 MOL      0.835482
     47 O7          2.0530   -3.4730   -4.3180 o         1 MOL     -0.715678
     48 O8          1.7950   -2.9960   -2.2170 o         1 MOL     -0.715678
     49 H21         0.2540   -4.0400   -0.6220 hn        1 MOL      0.192296
     50 H22         1.3680   -6.7150   -1.1630 h1        1 MOL      0.096943
     51 H23         0.7090   -5.7110   -3.1620 hc        1 MOL      0.110446
     52 H24         2.4800   -5.7390   -3.0970 hc        1 MOL      0.110446
     53 N5          2.7880   -4.6760    0.6190 n         1 MOL     -0.053833
     54 C17         3.7760   -4.4570    1.6520 c3        1 MOL     -0.212820
     55 C18         5.0050   -3.6250    1.1890 c         1 MOL      0.666060
     56 O9          6.0810   -3.7560    1.7020 o         1 MOL     -0.597526
     57 H25         1.9560   -4.1220    0.7290 hn        1 MOL      0.030312
     58 H26         4.2150   -5.4100    1.9600 h1        1 MOL      0.106379
     59 H27         3.2320   -4.0090    2.4790 h1        1 MOL      0.106379
     60 N6          4.8540   -2.7070    0.2110 n         1 MOL     -0.632122
     61 C19         6.0360   -2.1550   -0.5120 c3        1 MOL      0.177436
     62 C20         6.5580   -0.8470    0.0580 c         1 MOL      0.309260
     63 O10         7.2790   -0.1220   -0.6060 o         1 MOL     -0.474163
     64 C21         5.7580   -2.1900   -1.9930 c3        1 MOL     -0.339403
     65 C22         4.9270   -0.9870   -2.3500 c         1 MOL      0.765733
     66 N7          5.4120   -0.0850   -3.1680 n         1 MOL     -0.793484
     67 O11         3.8000   -0.8450   -1.9520 o         1 MOL     -0.696451
     68 H28         3.9170   -2.6840   -0.1590 hn        1 MOL      0.463488
     69 H29         6.8920   -2.8250   -0.3620 h1        1 MOL      0.127632
     70 H30         5.1370   -3.0300   -2.2830 hc        1 MOL      0.117599
     71 H31         6.7060   -2.2670   -2.5240 hc        1 MOL      0.117599
     72 H32         6.3940   -0.1560   -3.3720 hn        1 MOL      0.370394
     73 H33         4.8280    0.6810   -3.4760 hn        1 MOL      0.370394
     74 N8          6.1590   -0.5520    1.3370 n         1 MOL     -0.172293
     75 C23         6.7720    0.6630    1.9730 c3        1 MOL     -0.326130
     76 C24         6.0280    1.9700    1.6020 c         1 MOL      0.509155
     77 O12         6.4940    3.0140    2.1300 o         1 MOL     -0.536046
     78 H34         5.5470   -1.2000    1.8000 hn        1 MOL      0.263950
     79 H35         7.8320    0.7750    1.7510 h1        1 MOL      0.161813
     80 H36         6.7900    0.5090    3.0520 h1        1 MOL      0.161813
     81 N9          4.9730    1.9640    0.8160 n         1 MOL     -0.145471
     82 C25         3.9540    3.0290    0.7160 c3        1 MOL     -0.040876
     83 C26         2.5070    2.4020    0.8490 c         1 MOL      0.656672
     84 O13         2.2940    1.3130    0.3110 o         1 MOL     -0.489821
     85 C27         4.0480    3.9220   -0.5580 c3        1 MOL      0.065858
     86 C28         5.3760    4.7500   -0.6640 ca        1 MOL     -0.182708
     87 C29         6.4910    4.1810   -1.2100 ca        1 MOL      0.036611
     88 C30         5.4060    6.1440   -0.3040 ca        1 MOL      0.036611
     89 C31         7.6650    4.9570   -1.4620 ca        1 MOL     -0.411511
     90 C32         6.5480    6.8870   -0.5530 ca        1 MOL     -0.411511
     91 C33         7.7070    6.3210   -1.0830 ca        1 MOL      0.515605
     92 O14         8.7820    7.1690   -1.2180 oh        1 MOL     -0.549270
     93 H37         4.5760    1.0530    0.6640 hn        1 MOL      0.101039
     94 H38         4.0550    3.7250    1.5500 h1        1 MOL      0.049043
     95 H39         3.1760    4.5680   -0.4940 hc        1 MOL      0.015577
     96 H40         3.8630    3.3520   -1.4640 hc        1 MOL      0.015577
     97 H41         6.3880    3.1980   -1.6300 ha        1 MOL      0.082378
     98 H42         4.6340    6.7270    0.1730 ha        1 MOL      0.082378
     99 H43         8.4640    4.4070   -1.9330 ha        1 MOL      0.177600
    100 H44         6.6070    7.8670   -0.1030 ha        1 MOL      0.177600
    101 H45         8.7340    8.0490   -0.8240 ho        1 MOL      0.373861
    102 N10         1.5430    3.1140    1.4330 n         1 MOL     -0.697847
    103 C34         0.0790    2.8650    1.4710 c3        1 MOL      0.242664
    104 C35        -0.7130    3.8320    0.5190 c         1 MOL      0.608829
    105 O15        -0.4970    5.0410    0.6490 o         1 MOL     -0.614378
    106 C36        -0.3550    2.9490    2.9460 c3        1 MOL     -0.087310
    107 C37         0.2700    1.6700    3.5970 c3        1 MOL      0.101189
    108 C38        -1.8780    2.9890    3.0480 c3        1 MOL     -0.000459
    109 C39        -0.0160    1.5210    5.0520 c3        1 MOL     -0.539214
    110 H46         1.7690    4.0480    1.7390 hn        1 MOL      0.334306
    111 H47        -0.1130    1.8780    1.0670 h1        1 MOL     -0.050275
    112 H48         0.0510    3.8200    3.4680 hc        1 MOL      0.055255
    113 H49         1.3280    1.5360    3.4030 hc        1 MOL      0.047816
    114 H50        -0.1310    0.7780    3.1120 hc        1 MOL      0.047816
    115 H51        -2.2550    3.0000    4.0740 hc        1 MOL     -0.000636
    116 H52        -2.2890    3.8610    2.5440 hc        1 MOL     -0.000636
    117 H53        -2.3550    2.1280    2.5880 hc        1 MOL     -0.000636
    118 H54        -1.0950    1.5770    5.1950 hc        1 MOL      0.141305
    119 H55         0.2920    0.5010    5.2890 hc        1 MOL      0.141305
    120 H56         0.3520    2.4330    5.5040 hc        1 MOL      0.141305
    121 N11        -1.6860    3.3520   -0.1920 n         1 MOL     -0.311606
    122 C40        -2.6170    4.1790   -0.9500 c3        1 MOL      0.082118
    123 C41        -3.9540    4.4270   -0.2440 c         1 MOL      0.530095
    124 O16        -4.3670    3.6650    0.6570 o         1 MOL     -0.429508
    125 C42        -2.7350    3.7270   -2.3900 c3        1 MOL     -0.204957
    126 O17        -3.7210    2.7070   -2.4400 oh        1 MOL     -0.268459
    127 H57        -1.7240    2.3580   -0.3940 hn        1 MOL      0.254708
    128 H58        -2.2330    5.1890   -1.0510 h1        1 MOL      0.046009
    129 H59        -1.7640    3.3980   -2.7720 h1        1 MOL      0.113410
    130 H60        -3.1040    4.5600   -2.9750 h1        1 MOL      0.113410
    131 H61        -3.7940    2.4250   -3.3520 ho        1 MOL      0.336672
    132 N12        -4.7320    5.4130   -0.6790 n         1 MOL     -0.533137
    133 C43        -6.0400    5.4790   -0.1130 c3        1 MOL      0.249191
    134 C44        -7.0310    4.3480   -0.4990 c         1 MOL      0.383811
    135 O18        -8.0550    4.1430    0.1310 o         1 MOL     -0.505392
    136 C45        -6.6060    6.8190   -0.3480 c3        1 MOL     -0.284758
    137 H62        -4.4470    6.0630   -1.3810 hn        1 MOL      0.332377
    138 H63        -5.9640    5.3910    0.9690 h1        1 MOL      0.057250
    139 H64        -5.9620    7.6170    0.0370 hc        1 MOL      0.078863
    140 H65        -6.7190    7.0260   -1.4150 hc        1 MOL      0.078863
    141 H66        -7.5530    6.9090    0.1720 hc        1 MOL      0.078863
    142 N13        -6.6560    3.6690   -1.5550 n         1 MOL     -0.326221
    143 C46        -7.3750    2.4620   -2.0330 c3        1 MOL      0.238848
    144 C47        -6.8110    1.2390   -1.2540 c         1 MOL      0.300418
    145 O19        -7.5060    0.2600   -1.0980 o         1 MOL     -0.537406
    146 C48        -7.2690    2.3990   -3.5590 c3        1 MOL     -0.314349
    147 H67        -5.8810    3.9130   -2.1630 hn        1 MOL      0.198130
    148 H68        -8.4260    2.5620   -1.7530 h1        1 MOL      0.068970
    149 H69        -6.3100    1.9810   -3.8680 hc        1 MOL      0.083870
    150 H70        -8.1070    1.7710   -3.8600 hc        1 MOL      0.083870
    151 H71        -7.5360    3.3740   -3.9830 hc        1 MOL      0.083870
    152 N14        -5.5330    1.2630   -0.7760 n         1 MOL      0.190572
    153 C49        -5.0760    0.0560   -0.0400 c3        1 MOL     -0.079007
    154 C50        -5.4650    0.1340    1.4400 c         1 MOL      0.347365
    155 O20        -5.6710   -0.9740    2.0260 o         1 MOL     -0.560370
    156 C51        -3.6100   -0.0890   -0.0740 c3        1 MOL      0.070549
    157 C52        -3.1280   -0.5290   -1.5050 c3        1 MOL     -0.190392
    158 C53        -1.5750   -0.3840   -1.6900 c         1 MOL      0.728366
    159 O21        -1.0280    0.5800   -1.2190 o         1 MOL     -0.695830
    160 O22        -0.9980   -1.1600   -2.4700 o         1 MOL     -0.695830
    161 H72        -4.9670    2.0730   -0.9450 hn        1 MOL     -0.299575
    162 H73        -5.5720   -0.8230   -0.4420 h1        1 MOL      0.088485
    163 H74        -3.3080   -0.8210    0.6840 hc        1 MOL      0.019893
    164 H75        -3.2450    0.9060    0.1780 hc        1 MOL      0.019893
    165 H76        -3.8250   -0.0830   -2.2100 hc        1 MOL      0.012698
    166 H77        -3.3930   -1.5790   -1.5910 hc        1 MOL      0.012698
    167 N15        -5.5880    1.2660    2.0630 n         1 MOL      0.011267
    168 C54        -6.2320    1.4530    3.3400 c3        1 MOL     -0.253116
    169 H78        -6.4400    0.4810    3.7870 h1        1 MOL      0.103783
    170 H79        -5.5770    2.0230    3.9990 h1        1 MOL      0.103783
    171 H80        -7.1670    1.9950    3.2000 h1        1 MOL      0.103783
    172 H81        -5.3700    2.0610    1.4890 hn        1 MOL      0.125974
    173 Ca1         1.3200   -0.5560   -1.3900 Ca        1 MOL      1.655436
    174 O23         1.5900   -0.7100   -4.0170 oh        1 MOL     -0.837633
    175 H82         2.1500   -0.3090   -4.6840 ho        1 MOL      0.397337
    176 H83         1.7060   -1.6550   -4.1580 ho        1 MOL      0.397337
    177 O24         1.5350    1.7740   -2.5640 oh        1 MOL     -0.837633
    178 H84         1.6460    1.3060   -3.3900 ho        1 MOL      0.397337
    179 H85         1.6890    2.6900   -2.7860 ho        1 MOL      0.397337
@<TRIPOS>BOND
     1    1    2 1   
     2    1    4 1   
     3    1    5 1   
     4    1    6 1   
     5    2    3 2   
     6    2    7 1   
     7    7    8 1   
     8    7   15 1   
     9    8    9 1   
    10    8   11 1   
    11    8   16 1   
    12    9   10 2   
    13    9   19 1   
    14   11   12 1   
    15   11   17 1   
    16   11   18 1   
    17   12   13 1   
    18   12   14 1   
    19   19   20 1   
    20   19   28 1   
    21   20   21 1   
    22   20   23 1   
    23   20   29 1   
    24   21   22 2   
    25   21   41 1   
    26   23   24 1   
    27   23   30 1   
    28   23   31 1   
    29   24   25 1   
    30   24   32 1   
    31   24   33 1   
    32   25   26 1   
    33   25   34 1   
    34   25   35 1   
    35   26   27 1   
    36   26   36 1   
    37   26   37 1   
    38   27   38 1   
    39   27   39 1   
    40   27   40 1   
    41   41   42 1   
    42   41   49 1   
    43   42   43 1   
    44   42   45 1   
    45   42   50 1   
    46   43   44 2   
    47   43   53 1   
    48   45   46 1   
    49   45   51 1   
    50   45   52 1   
    51   46   47 1   
    52   46   48 1   
    53   53   54 1   
    54   53   57 1   
    55   54   55 1   
    56   54   58 1   
    57   54   59 1   
    58   55   56 2   
    59   55   60 1   
    60   60   61 1   
    61   60   68 1   
    62   61   62 1   
    63   61   64 1   
    64   61   69 1   
    65   62   63 2   
    66   62   74 1   
    67   64   65 1   
    68   64   70 1   
    69   64   71 1   
    70   65   66 1   
    71   65   67 2   
    72   66   72 1   
    73   66   73 1   
    74   74   75 1   
    75   74   78 1   
    76   75   76 1   
    77   75   79 1   
    78   75   80 1   
    79   76   77 2   
    80   76   81 1   
    81   81   82 1   
    82   81   93 1   
    83   82   83 1   
    84   82   85 1   
    85   82   94 1   
    86   83   84 2   
    87   83  102 1   
    88   85   86 1   
    89   85   95 1   
    90   85   96 1   
    91   86   87 ar  
    92   86   88 ar  
    93   87   89 ar  
    94   87   97 1   
    95   88   90 ar  
    96   88   98 1   
    97   89   91 ar  
    98   89   99 1   
    99   90   91 ar  
   100   90  100 1   
   101   91   92 1   
   102   92  101 1   
   103  102  103 1   
   104  102  110 1   
   105  103  104 1   
   106  103  106 1   
   107  103  111 1   
   108  104  105 2   
   109  104  121 1   
   110  106  107 1   
   111  106  108 1   
   112  106  112 1   
   113  107  109 1   
   114  107  113 1   
   115  107  114 1   
   116  108  115 1   
   117  108  116 1   
   118  108  117 1   
   119  109  118 1   
   120  109  119 1   
   121  109  120 1   
   122  121  122 1   
   123  121  127 1   
   124  122  123 1   
   125  122  125 1   
   126  122  128 1   
   127  123  124 2   
   128  123  132 1   
   129  125  126 1   
   130  125  129 1   
   131  125  130 1   
   132  126  131 1   
   133  132  133 1   
   134  132  137 1   
   135  133  134 1   
   136  133  136 1   
   137  133  138 1   
   138  134  135 2   
   139  134  142 1   
   140  136  139 1   
   141  136  140 1   
   142  136  141 1   
   143  142  143 1   
   144  142  147 1   
   145  143  144 1   
   146  143  146 1   
   147  143  148 1   
   148  144  145 2   
   149  144  152 1   
   150  146  149 1   
   151  146  150 1   
   152  146  151 1   
   153  152  153 1   
   154  152  161 1   
   155  153  154 1   
   156  153  156 1   
   157  153  162 1   
   158  154  155 2   
   159  154  167 1   
   160  156  157 1   
   161  156  163 1   
   162  156  164 1   
   163  157  158 1   
   164  157  165 1   
   165  157  166 1   
   166  158  159 1   
   167  158  160 1   
   168  167  168 1   
   169  167  172 1   
   170  168  169 1   
   171  168  170 1   
   172  168  171 1   
   173  174  175 1   
   174  174  176 1   
   175  177  178 1   
   176  177  179 1   
@<TRIPOS>SUBSTRUCTURE
     1 MOL         1 TEMP              0 ****  ****    0 ROOT
