@<TRIPOS>MOLECULE
MOL
  179   176     1     0     0
SMALL
resp


@<TRIPOS>ATOM
      1 C1          2.4610    3.1250    4.2060 c3        1 MOL     -0.369199
      2 C2          1.6080    2.9800    2.9080 c         1 MOL      0.561814
      3 O1          2.0920    2.8090    1.8130 o         1 MOL     -0.499914
      4 H1          3.5050    3.2810    3.9370 hc        1 MOL      0.098531
      5 H2          2.1030    3.9780    4.7830 hc        1 MOL      0.098531
      6 H3          2.3710    2.2180    4.8030 hc        1 MOL      0.098531
      7 N1          0.2840    3.0570    3.0780 n         1 MOL     -0.658321
      8 C3         -0.7140    2.8530    2.0680 c3        1 MOL      0.229703
      9 C4         -1.1290    4.1510    1.3340 c         1 MOL      0.453928
     10 O2         -2.2760    4.6510    1.3810 o         1 MOL     -0.435787
     11 C5         -1.9620    2.2110    2.6020 c3        1 MOL      0.016112
     12 C6         -2.9200    1.6250    1.5410 c         1 MOL      0.580833
     13 O3         -4.1070    1.4750    1.8730 o         1 MOL     -0.615131
     14 O4         -2.4880    1.4430    0.4230 o         1 MOL     -0.615131
     15 H4         -0.0090    3.1470    4.0380 hn        1 MOL      0.347950
     16 H5         -0.2690    2.1750    1.3360 h1        1 MOL      0.000186
     17 H6         -2.5690    2.9200    3.1640 hc        1 MOL     -0.021140
     18 H7         -1.6520    1.4590    3.3300 hc        1 MOL     -0.021140
     19 N2         -0.1120    4.8350    0.7440 n         1 MOL     -0.429676
     20 C7         -0.3280    6.2110    0.1890 c3        1 MOL     -0.048459
     21 C8         -1.3710    6.2880   -0.9540 c         1 MOL      0.335218
     22 O5         -2.1040    7.2710   -1.1830 o         1 MOL     -0.520646
     23 C9          0.9960    7.0200    0.0060 c3        1 MOL      0.084966
     24 C10         1.7420    7.1940    1.2960 c3        1 MOL      0.059801
     25 C11         2.8020    8.2700    1.2800 c3        1 MOL     -0.210215
     26 C12         4.2110    7.7270    0.9710 c3        1 MOL     -0.082040
     27 N3          4.8970    7.0510    2.0630 n4        1 MOL     -0.286611
     28 H8          0.8070    4.4220    0.7550 hn        1 MOL      0.322315
     29 H9         -0.8780    6.7180    0.9810 h1        1 MOL      0.108383
     30 H10         0.7430    7.9680   -0.4620 hc        1 MOL      0.022518
     31 H11         1.5920    6.5170   -0.7510 hc        1 MOL      0.022518
     32 H12         2.2700    6.2440    1.3600 hc        1 MOL      0.002552
     33 H13         1.0390    7.3470    2.1140 hc        1 MOL      0.002552
     34 H14         2.8010    8.7840    2.2320 hc        1 MOL      0.097671
     35 H15         2.4640    8.9840    0.5370 hc        1 MOL      0.097671
     36 H16         4.8430    8.5880    0.7630 hx        1 MOL      0.120104
     37 H17         4.0970    7.1180    0.0700 hx        1 MOL      0.120104
     38 H18         5.8400    6.8490    1.7990 hn        1 MOL      0.325544
     39 H19         4.9790    7.6680    2.8550 hn        1 MOL      0.325544
     40 H20         4.4740    6.1560    2.2800 hn        1 MOL      0.325544
     41 N4         -1.6410    5.1420   -1.5910 n         1 MOL     -0.151290
     42 C13        -2.6510    4.9830   -2.6540 c3        1 MOL     -0.045114
     43 C14        -4.0140    4.5310   -2.0220 c         1 MOL      0.396447
     44 O6         -5.0640    4.5740   -2.6730 o         1 MOL     -0.531240
     45 C15        -2.2530    3.9490   -3.6890 c3        1 MOL     -0.226131
     46 C16        -1.8850    2.6450   -2.9380 c         1 MOL      0.667627
     47 O7         -0.7580    2.5790   -2.3460 o         1 MOL     -0.689472
     48 O8         -2.6500    1.6520   -2.9400 o         1 MOL     -0.689472
     49 H21        -1.1120    4.3110   -1.3580 hn        1 MOL      0.143766
     50 H22        -2.8590    5.9680   -3.0850 h1        1 MOL      0.126347
     51 H23        -1.4030    4.3000   -4.2690 hc        1 MOL      0.079458
     52 H24        -3.0600    3.7940   -4.4010 hc        1 MOL      0.079458
     53 N5         -4.0840    4.1800   -0.7380 n         1 MOL     -0.006026
     54 C17        -5.3970    3.8740   -0.0020 c3        1 MOL     -0.256714
     55 C18        -6.1170    2.6390   -0.4480 c         1 MOL      0.637466
     56 O9         -7.3190    2.6880   -0.6100 o         1 MOL     -0.601456
     57 H25        -3.3230    4.2830   -0.0810 hn        1 MOL      0.110598
     58 H26        -6.0850    4.6990   -0.1680 h1        1 MOL      0.108502
     59 H27        -5.2240    3.7280    1.0640 h1        1 MOL      0.108502
     60 N6         -5.4200    1.5500   -0.7250 n         1 MOL     -0.148068
     61 C19        -6.1550    0.4070   -1.2580 c3        1 MOL     -0.110583
     62 C20        -6.4060   -0.7010   -0.1960 c         1 MOL      0.362547
     63 O10        -7.1570   -1.6460   -0.4570 o         1 MOL     -0.535530
     64 C21        -5.3300   -0.0880   -2.4360 c3        1 MOL     -0.053437
     65 C22        -4.1680   -1.0700   -2.2850 c         1 MOL      0.470036
     66 N7         -3.4660   -1.4020   -3.2980 n         1 MOL     -0.773707
     67 O11        -3.6180   -1.2440   -1.2030 o         1 MOL     -0.373912
     68 H28        -4.4260    1.5380   -0.5120 hn        1 MOL     -0.027623
     69 H29        -7.1610    0.6160   -1.6120 h1        1 MOL      0.170094
     70 H30        -4.8710    0.7440   -2.9650 hc        1 MOL      0.058214
     71 H31        -6.1260   -0.4810   -3.0590 hc        1 MOL      0.058214
     72 H32        -3.6580   -1.1900   -4.2780 hn        1 MOL      0.365370
     73 H33        -2.6940   -2.0010   -3.0530 hn        1 MOL      0.365370
     74 N8         -5.9550   -0.5700    1.0510 n         1 MOL     -0.186431
     75 C23        -6.1020   -1.4880    2.1510 c3        1 MOL     -0.164086
     76 C24        -5.0070   -2.5060    2.3450 c         1 MOL      0.633360
     77 O12        -5.1510   -3.2990    3.2300 o         1 MOL     -0.579049
     78 H34        -5.3830    0.2430    1.2000 hn        1 MOL      0.208039
     79 H35        -7.0430   -2.0140    2.0190 h1        1 MOL      0.107953
     80 H36        -6.3080   -0.9710    3.0920 h1        1 MOL      0.107953
     81 N9         -3.9390   -2.4850    1.5360 n         1 MOL     -0.618080
     82 C25        -2.9390   -3.5020    1.6050 c3        1 MOL      0.594084
     83 C26        -1.5640   -2.8450    1.2680 c         1 MOL      0.419508
     84 O13        -1.5080   -1.7120    0.7270 o         1 MOL     -0.729023
     85 C27        -3.2730   -4.5320    0.5210 c3        1 MOL     -0.346253
     86 C28        -4.6620   -5.1400    0.5150 ca        1 MOL      0.323746
     87 C29        -5.5030   -4.9320   -0.6480 ca        1 MOL     -0.367749
     88 C30        -5.0840   -6.0690    1.4950 ca        1 MOL     -0.367749
     89 C31        -6.7170   -5.6800   -0.7880 ca        1 MOL     -0.118755
     90 C32        -6.3320   -6.6710    1.4000 ca        1 MOL     -0.118755
     91 C33        -7.1310   -6.5340    0.2580 ca        1 MOL      0.220794
     92 O14        -8.2700   -7.1960    0.2300 oh        1 MOL     -0.441782
     93 H37        -3.9960   -1.8470    0.7490 hn        1 MOL      0.311162
     94 H38        -2.9130   -3.9610    2.5950 h1        1 MOL     -0.053749
     95 H39        -2.5690   -5.3390    0.7470 hc        1 MOL      0.039056
     96 H40        -3.0180   -4.0440   -0.4140 hc        1 MOL      0.039056
     97 H41        -5.1440   -4.2060   -1.3590 ha        1 MOL      0.194885
     98 H42        -4.4930   -6.1120    2.3960 ha        1 MOL      0.194885
     99 H43        -7.3000   -5.6510   -1.6940 ha        1 MOL      0.122899
    100 H44        -6.6120   -7.2730    2.2560 ha        1 MOL      0.122899
    101 H45        -8.5710   -7.2160   -0.6870 ho        1 MOL      0.348197
    102 N10        -0.4530   -3.5310    1.6020 n         1 MOL     -0.394647
    103 C34         0.8910   -3.0320    1.5350 c3        1 MOL     -0.066265
    104 C35         1.7470   -4.0530    0.7740 c         1 MOL      0.491799
    105 O15         1.7220   -5.2360    1.0610 o         1 MOL     -0.537618
    106 C36         1.4690   -2.8190    2.8910 c3        1 MOL      0.217355
    107 C37         0.5910   -2.1960    3.9500 c3        1 MOL      0.003558
    108 C38         2.8150   -2.0870    2.7180 c3        1 MOL     -0.287938
    109 C39         0.2210   -0.7420    3.6180 c3        1 MOL     -0.241287
    110 H46        -0.6100   -4.4210    2.0530 hn        1 MOL      0.264562
    111 H47         0.9940   -2.1410    0.9120 h1        1 MOL      0.048220
    112 H48         1.7770   -3.7480    3.3710 hc        1 MOL     -0.013770
    113 H49         1.1630   -2.2180    4.8750 hc        1 MOL     -0.000954
    114 H50        -0.3270   -2.7610    4.1190 hc        1 MOL     -0.000954
    115 H51         3.0790   -1.7730    3.7260 hc        1 MOL      0.049885
    116 H52         3.5950   -2.7600    2.3620 hc        1 MOL      0.049885
    117 H53         2.6210   -1.1900    2.1340 hc        1 MOL      0.049885
    118 H54        -0.1270   -0.6430    2.5960 hc        1 MOL      0.096293
    119 H55        -0.5700   -0.4150    4.2820 hc        1 MOL      0.096293
    120 H56         1.1000   -0.0980    3.6740 hc        1 MOL      0.096293
    121 N11         2.4470   -3.4770   -0.2060 n         1 MOL     -0.314427
    122 C40         3.5440   -4.1400   -1.0060 c3        1 MOL     -0.050541
    123 C41         4.9800   -3.8280   -0.5220 c         1 MOL      0.474920
    124 O16         5.1640   -2.8820    0.2050 o         1 MOL     -0.347877
    125 C42         3.4500   -3.9830   -2.5310 c3        1 MOL     -0.072244
    126 O17         3.5530   -2.6120   -2.8230 oh        1 MOL     -0.541258
    127 H57         2.3550   -2.4770   -0.3080 hn        1 MOL      0.438783
    128 H58         3.4050   -5.2040   -0.8620 h1        1 MOL      0.047592
    129 H59         2.4500   -4.3050   -2.8310 h1        1 MOL      0.105205
    130 H60         4.1940   -4.6010   -3.0270 h1        1 MOL      0.105205
    131 H61         3.0280   -2.0840   -2.2090 ho        1 MOL      0.300095
    132 N12         5.9610   -4.6570   -0.7470 n         1 MOL     -0.410023
    133 C43         7.3580   -4.4420   -0.4300 c3        1 MOL      0.039666
    134 C44         7.9100   -3.1040   -0.8930 c         1 MOL      0.524340
    135 O18         8.5780   -2.4270   -0.1440 o         1 MOL     -0.523441
    136 C45         8.1300   -5.6510   -1.0840 c3        1 MOL     -0.309575
    137 H62         5.7750   -5.5040   -1.2590 hn        1 MOL      0.275761
    138 H63         7.5280   -4.5110    0.6480 h1        1 MOL      0.095249
    139 H64         7.6600   -6.6280   -1.0170 hc        1 MOL      0.100640
    140 H65         8.3920   -5.5510   -2.1430 hc        1 MOL      0.100640
    141 H66         9.0850   -5.6510   -0.5570 hc        1 MOL      0.100640
    142 N13         7.6060   -2.5970   -2.0790 n         1 MOL     -0.377364
    143 C46         7.9480   -1.2460   -2.4550 c3        1 MOL      0.056095
    144 C47         7.3870   -0.1050   -1.5350 c         1 MOL      0.409991
    145 O19         7.9650    0.9930   -1.3810 o         1 MOL     -0.518511
    146 C48         7.3450   -1.0570   -3.9490 c3        1 MOL     -0.394474
    147 H67         7.1650   -3.1960   -2.7600 hn        1 MOL      0.276152
    148 H68         9.0280   -1.1440   -2.3420 h1        1 MOL      0.084221
    149 H69         6.2790   -0.9320   -3.8150 hc        1 MOL      0.118877
    150 H70         7.7760   -0.1600   -4.4040 hc        1 MOL      0.118877
    151 H71         7.4670   -2.0130   -4.4640 hc        1 MOL      0.118877
    152 N14         6.2000   -0.3680   -0.9290 n         1 MOL      0.070893
    153 C49         5.4890    0.5370   -0.0220 c3        1 MOL     -0.400055
    154 C50         6.2030    0.7170    1.4080 c         1 MOL      0.563675
    155 O20         6.3990    1.8850    1.8970 o         1 MOL     -0.563450
    156 C51         4.0560    0.0420    0.1480 c3        1 MOL      0.019706
    157 C52         3.2930    0.3750   -1.1710 c3        1 MOL     -0.155723
    158 C53         1.8570   -0.0330   -1.0430 c         1 MOL      0.818281
    159 O21         1.0020    0.8240   -0.7180 o         1 MOL     -0.746493
    160 O22         1.5300   -1.2300   -1.2810 o         1 MOL     -0.746493
    161 H72         5.9040   -1.3290   -1.0130 hn        1 MOL      0.080485
    162 H73         5.4610    1.5370   -0.4470 h1        1 MOL      0.156722
    163 H74         3.5690    0.5700    0.9720 hc        1 MOL      0.054442
    164 H75         3.9800   -1.0120    0.4300 hc        1 MOL      0.054442
    165 H76         3.7730   -0.1700   -1.9820 hc        1 MOL      0.019354
    166 H77         3.3680    1.4490   -1.3550 hc        1 MOL      0.019354
    167 N15         6.4970   -0.4810    1.9500 n         1 MOL     -0.144297
    168 C54         7.3820   -0.6270    3.0620 c3        1 MOL     -0.654211
    169 H78         8.3950   -0.3670    2.7550 h1        1 MOL      0.209504
    170 H79         7.0660    0.0360    3.8680 h1        1 MOL      0.209504
    171 H80         7.3620   -1.6600    3.4100 h1        1 MOL      0.209504
    172 H81         6.3920   -1.3020    1.3690 hn        1 MOL      0.221198
    173 Ca1        -1.2790    0.0930   -1.2980 Ca        1 MOL      1.747303
    174 O23        -0.8890   -2.4370   -2.0520 oh        1 MOL     -0.852404
    175 H82         0.0110   -2.2670   -2.3160 ho        1 MOL      0.419377
    176 H83        -0.9190   -3.3770   -1.8740 ho        1 MOL      0.419377
    177 O24        -0.0250   -0.0200   -3.7390 oh        1 MOL     -0.852404
    178 H84         0.3030    0.7590   -4.1880 ho        1 MOL      0.419377
    179 H85         0.0850   -0.7230   -4.3770 ho        1 MOL      0.419377
@<TRIPOS>BOND
     1    1    2 1   
     2    1    4 1   
     3    1    5 1   
     4    1    6 1   
     5    2    3 2   
     6    2    7 1   
     7    7    8 1   
     8    7   15 1   
     9    8    9 1   
    10    8   11 1   
    11    8   16 1   
    12    9   10 2   
    13    9   19 1   
    14   11   12 1   
    15   11   17 1   
    16   11   18 1   
    17   12   13 1   
    18   12   14 1   
    19   19   20 1   
    20   19   28 1   
    21   20   21 1   
    22   20   23 1   
    23   20   29 1   
    24   21   22 2   
    25   21   41 1   
    26   23   24 1   
    27   23   30 1   
    28   23   31 1   
    29   24   25 1   
    30   24   32 1   
    31   24   33 1   
    32   25   26 1   
    33   25   34 1   
    34   25   35 1   
    35   26   27 1   
    36   26   36 1   
    37   26   37 1   
    38   27   38 1   
    39   27   39 1   
    40   27   40 1   
    41   41   42 1   
    42   41   49 1   
    43   42   43 1   
    44   42   45 1   
    45   42   50 1   
    46   43   44 2   
    47   43   53 1   
    48   45   46 1   
    49   45   51 1   
    50   45   52 1   
    51   46   47 1   
    52   46   48 1   
    53   53   54 1   
    54   53   57 1   
    55   54   55 1   
    56   54   58 1   
    57   54   59 1   
    58   55   56 2   
    59   55   60 1   
    60   60   61 1   
    61   60   68 1   
    62   61   62 1   
    63   61   64 1   
    64   61   69 1   
    65   62   63 2   
    66   62   74 1   
    67   64   65 1   
    68   64   70 1   
    69   64   71 1   
    70   65   66 1   
    71   65   67 2   
    72   66   72 1   
    73   66   73 1   
    74   74   75 1   
    75   74   78 1   
    76   75   76 1   
    77   75   79 1   
    78   75   80 1   
    79   76   77 2   
    80   76   81 1   
    81   81   82 1   
    82   81   93 1   
    83   82   83 1   
    84   82   85 1   
    85   82   94 1   
    86   83   84 2   
    87   83  102 1   
    88   85   86 1   
    89   85   95 1   
    90   85   96 1   
    91   86   87 ar  
    92   86   88 ar  
    93   87   89 ar  
    94   87   97 1   
    95   88   90 ar  
    96   88   98 1   
    97   89   91 ar  
    98   89   99 1   
    99   90   91 ar  
   100   90  100 1   
   101   91   92 1   
   102   92  101 1   
   103  102  103 1   
   104  102  110 1   
   105  103  104 1   
   106  103  106 1   
   107  103  111 1   
   108  104  105 2   
   109  104  121 1   
   110  106  107 1   
   111  106  108 1   
   112  106  112 1   
   113  107  109 1   
   114  107  113 1   
   115  107  114 1   
   116  108  115 1   
   117  108  116 1   
   118  108  117 1   
   119  109  118 1   
   120  109  119 1   
   121  109  120 1   
   122  121  122 1   
   123  121  127 1   
   124  122  123 1   
   125  122  125 1   
   126  122  128 1   
   127  123  124 2   
   128  123  132 1   
   129  125  126 1   
   130  125  129 1   
   131  125  130 1   
   132  126  131 1   
   133  132  133 1   
   134  132  137 1   
   135  133  134 1   
   136  133  136 1   
   137  133  138 1   
   138  134  135 2   
   139  134  142 1   
   140  136  139 1   
   141  136  140 1   
   142  136  141 1   
   143  142  143 1   
   144  142  147 1   
   145  143  144 1   
   146  143  146 1   
   147  143  148 1   
   148  144  145 2   
   149  144  152 1   
   150  146  149 1   
   151  146  150 1   
   152  146  151 1   
   153  152  153 1   
   154  152  161 1   
   155  153  154 1   
   156  153  156 1   
   157  153  162 1   
   158  154  155 2   
   159  154  167 1   
   160  156  157 1   
   161  156  163 1   
   162  156  164 1   
   163  157  158 1   
   164  157  165 1   
   165  157  166 1   
   166  158  159 1   
   167  158  160 1   
   168  167  168 1   
   169  167  172 1   
   170  168  169 1   
   171  168  170 1   
   172  168  171 1   
   173  174  175 1   
   174  174  176 1   
   175  177  178 1   
   176  177  179 1   
@<TRIPOS>SUBSTRUCTURE
     1 MOL         1 TEMP              0 ****  ****    0 ROOT
