@<TRIPOS>MOLECULE
MOL
  186   183     1     0     0
SMALL
resp


@<TRIPOS>ATOM
      1 C1          0.4070   -2.1870    6.0180 c3        1 MOL     -0.437364
      2 C2          0.8550   -2.2850    4.6080 c         1 MOL      0.751862
      3 O1          0.0980   -2.5930    3.7210 o         1 MOL     -0.576627
      4 H1          1.2660   -1.9880    6.6590 hc        1 MOL      0.099262
      5 H2         -0.3150   -1.3760    6.1150 hc        1 MOL      0.099262
      6 H3         -0.0590   -3.1270    6.3170 hc        1 MOL      0.099262
      7 N1          2.0800   -1.9820    4.3420 n         1 MOL     -0.597686
      8 C3          2.6300   -1.8630    3.0170 c3        1 MOL      0.242364
      9 C4          3.1680   -3.1790    2.4910 c         1 MOL      0.486906
     10 O2          3.9780   -3.8650    3.1090 o         1 MOL     -0.580683
     11 C5          3.7610   -0.8390    3.0180 c3        1 MOL     -0.384447
     12 C6          4.4910   -0.6150    1.7200 c         1 MOL      0.870954
     13 O3          3.8770   -0.9670    0.7350 o         1 MOL     -0.712100
     14 O4          5.5280   -0.0440    1.7540 o         1 MOL     -0.712100
     15 H4          2.5670   -1.5500    5.1230 hn        1 MOL      0.300300
     16 H5          1.8050   -1.4470    2.4410 h1        1 MOL     -0.023903
     17 H6          4.4010   -1.1970    3.8290 hc        1 MOL      0.057807
     18 H7          3.4010    0.1510    3.2640 hc        1 MOL      0.057807
     19 N2          2.5690   -3.5770    1.3690 n         1 MOL     -0.060562
     20 C7          2.8760   -4.9580    0.8430 c3        1 MOL      0.007047
     21 C8          4.0680   -5.0390   -0.0490 c         1 MOL      0.405954
     22 O5          4.8350   -6.0220    0.0020 o         1 MOL     -0.576157
     23 C9          1.5730   -5.4540    0.0350 c3        1 MOL      0.043888
     24 C10         0.2640   -5.4770    0.9680 c3        1 MOL      0.016302
     25 C11         1.8850   -6.9670   -0.2920 c3        1 MOL     -0.232697
     26 C12         0.4290   -5.9740    2.3480 c3        1 MOL     -0.290758
     27 H8          1.8940   -2.9740    0.9260 hn        1 MOL      0.159372
     28 H9          3.0670   -5.5670    1.7310 h1        1 MOL      0.056600
     29 H10         1.4000   -4.8370   -0.8390 hc        1 MOL      0.040857
     30 H11        -0.5210   -6.0280    0.4590 hc        1 MOL      0.028495
     31 H12         0.0270   -4.4130    1.0910 hc        1 MOL      0.028495
     32 H13         2.5820   -7.0600   -1.1280 hc        1 MOL      0.053744
     33 H14         2.1480   -7.5940    0.5710 hc        1 MOL      0.053744
     34 H15         0.9590   -7.4180   -0.6350 hc        1 MOL      0.053744
     35 H16         1.0060   -5.1920    2.8400 hc        1 MOL      0.063817
     36 H17        -0.5780   -6.0400    2.7850 hc        1 MOL      0.063817
     37 H18         0.8620   -6.9770    2.3040 hc        1 MOL      0.063817
     38 N3          4.2770   -3.9960   -0.8180 n         1 MOL     -0.274837
     39 C13         5.2530   -3.9130   -1.9140 c3        1 MOL      0.245846
     40 C14         6.4330   -3.0350   -1.6850 c         1 MOL      0.340930
     41 O6          7.4140   -3.1540   -2.4280 o         1 MOL     -0.545410
     42 C15         4.5850   -3.6030   -3.3250 c3        1 MOL     -0.343186
     43 C16         3.8100   -2.2390   -3.3700 c         1 MOL      0.767861
     44 O7          3.1790   -1.9730   -4.4300 o         1 MOL     -0.687839
     45 O8          3.6960   -1.4780   -2.3660 o         1 MOL     -0.687839
     46 H19         3.6380   -3.2160   -0.7960 hn        1 MOL      0.181046
     47 H20         5.6780   -4.9130   -2.0110 h1        1 MOL      0.036667
     48 H21         3.9980   -4.4670   -3.6230 hc        1 MOL      0.082078
     49 H22         5.4560   -3.5490   -3.9790 hc        1 MOL      0.082078
     50 N4          6.4580   -2.1560   -0.6370 n         1 MOL     -0.101660
     51 C17         7.6500   -1.4500   -0.2570 c3        1 MOL     -0.191544
     52 C18         7.9020    0.0020   -0.7370 c         1 MOL      0.588821
     53 O9          9.0140    0.4980   -0.7880 o         1 MOL     -0.654110
     54 H23         5.5990   -2.0100   -0.1200 hn        1 MOL      0.082094
     55 H24         8.4950   -1.9990   -0.6630 h1        1 MOL      0.083466
     56 H25         7.8110   -1.3850    0.8250 h1        1 MOL      0.083466
     57 N5          6.8850    0.5740   -1.3540 n         1 MOL     -0.152010
     58 C19         7.0000    1.8470   -2.0440 c3        1 MOL     -0.124071
     59 C20         6.9420    3.0450   -1.0650 c         1 MOL      0.495001
     60 O10         6.7450    4.1480   -1.4490 o         1 MOL     -0.524086
     61 C21         6.0440    1.9930   -3.2470 c3        1 MOL     -0.213575
     62 C22         4.5530    1.8000   -2.8650 c         1 MOL      0.817949
     63 O11         3.6830    2.0690   -3.7030 o         1 MOL     -0.731536
     64 O12         4.2410    1.4760   -1.7040 o         1 MOL     -0.731536
     65 H26         6.0450    0.0270   -1.4460 hn        1 MOL      0.162711
     66 H27         7.9790    1.8090   -2.5330 h1        1 MOL      0.111890
     67 H28         6.3230    1.2140   -3.9520 hc        1 MOL      0.063562
     68 H29         6.1950    2.9420   -3.7470 hc        1 MOL      0.063562
     69 N6          7.0790    2.8550    0.2350 n         1 MOL     -0.298834
     70 C23         6.9910    3.7680    1.3470 c3        1 MOL     -0.189827
     71 C24         5.5880    4.3660    1.5850 c         1 MOL      0.537982
     72 O13         5.4770    5.3370    2.2930 o         1 MOL     -0.568700
     73 H30         7.1840    1.9170    0.5890 hn        1 MOL      0.275091
     74 H31         7.7200    4.5650    1.2700 h1        1 MOL      0.102405
     75 H32         7.1730    3.1670    2.2430 h1        1 MOL      0.102405
     76 N7          4.5740    3.6800    0.9900 n         1 MOL     -0.238323
     77 C25         3.1440    4.1270    1.2400 c3        1 MOL      0.107831
     78 C26         2.0920    3.0000    1.4340 c         1 MOL      0.494411
     79 O14         2.2630    1.8430    1.0350 o         1 MOL     -0.668380
     80 C27         2.5970    5.1070    0.1800 c3        1 MOL      0.179167
     81 C28         3.1010    6.4540    0.3350 c3        1 MOL     -0.409925
     82 C29         2.2460    7.3880   -0.5420 c         1 MOL      0.739659
     83 N8          2.1670    7.1430   -1.8650 n         1 MOL     -0.848292
     84 O15         1.5880    8.3010   -0.1490 o         1 MOL     -0.583214
     85 H33         4.8680    2.9150    0.3990 hn        1 MOL      0.140839
     86 H34         3.0810    4.6250    2.1990 h1        1 MOL      0.008332
     87 H35         1.5130    5.1910    0.2400 hc        1 MOL     -0.009478
     88 H36         2.7930    4.7600   -0.8330 hc        1 MOL     -0.009478
     89 H37         4.1110    6.4300   -0.0740 hc        1 MOL      0.111865
     90 H38         3.2040    6.8640    1.3400 hc        1 MOL      0.111865
     91 H39         2.4950    6.2890   -2.2920 hn        1 MOL      0.359741
     92 H40         1.4810    7.6800   -2.3730 hn        1 MOL      0.359741
     93 N9          0.9840    3.3310    1.9860 n         1 MOL     -0.303257
     94 C30        -0.1580    2.4320    2.1830 c3        1 MOL      0.043250
     95 C31        -1.2720    2.9070    1.2140 c         1 MOL      0.415686
     96 O16        -1.4480    4.1160    1.0750 o         1 MOL     -0.589251
     97 C32        -0.6230    2.3750    3.6210 c3        1 MOL      0.002453
     98 C33        -2.0020    1.6660    3.8360 c3        1 MOL     -0.186332
     99 C34         0.5340    1.5780    4.3240 c3        1 MOL     -0.186332
    100 H41         0.8910    4.2620    2.3640 hn        1 MOL      0.249026
    101 H42         0.1210    1.4150    1.8870 h1        1 MOL      0.188748
    102 H43        -0.6050    3.4230    3.9530 hc        1 MOL      0.021706
    103 H44        -2.0260    0.6300    3.4980 hc        1 MOL      0.050332
    104 H45        -2.4060    1.8100    4.8320 hc        1 MOL      0.050332
    105 H46        -2.7660    2.2640    3.3400 hc        1 MOL      0.050332
    106 H47         0.4930    0.5700    3.9070 hc        1 MOL      0.050332
    107 H48         1.4890    2.0010    4.0100 hc        1 MOL      0.050332
    108 H49         0.5150    1.5290    5.4130 hc        1 MOL      0.050332
    109 N10        -1.7680    2.0380    0.3560 n         1 MOL     -0.045397
    110 C35        -2.8550    2.1530   -0.6160 c3        1 MOL     -0.065319
    111 C36        -4.1960    1.9290    0.0730 c         1 MOL      0.519049
    112 O17        -4.2690    1.1350    1.0190 o         1 MOL     -0.432606
    113 C37        -2.6070    1.3230   -1.9080 c3        1 MOL     -0.235286
    114 C38        -3.6420    1.5490   -3.0090 c         1 MOL      0.780455
    115 N11        -3.7700    2.6910   -3.5610 n         1 MOL     -0.788127
    116 O18        -4.2970    0.6540   -3.4980 o         1 MOL     -0.586473
    117 H50        -1.3670    1.1100    0.3710 hn        1 MOL      0.053296
    118 H51        -2.9140    3.2050   -0.9050 h1        1 MOL      0.040515
    119 H52        -2.6390    0.2430   -1.7460 hc        1 MOL      0.111100
    120 H53        -1.7050    1.5690   -2.4480 hc        1 MOL      0.111100
    121 H54        -3.4650    3.5990   -3.2210 hn        1 MOL      0.345634
    122 H55        -4.3400    2.6440   -4.3840 hn        1 MOL      0.345634
    123 N12        -5.3230    2.4040   -0.5300 n         1 MOL     -0.553714
    124 C39        -6.6950    2.0300   -0.1610 c3        1 MOL      0.274079
    125 C40        -6.9000    0.4320   -0.1930 c         1 MOL      0.569621
    126 O19        -7.3870   -0.1280    0.7700 o         1 MOL     -0.523107
    127 C41        -7.7500    2.6220   -1.1210 c3        1 MOL     -0.144678
    128 C42        -9.1390    2.2760   -0.7490 ca        1 MOL      0.173080
    129 C43        -9.6410    2.6890    0.5390 ca        1 MOL     -0.299851
    130 C44       -10.0110    1.6480   -1.6850 ca        1 MOL     -0.299851
    131 C45       -11.0280    2.3890    0.8120 ca        1 MOL     -0.132220
    132 C46       -11.3860    1.4390   -1.3540 ca        1 MOL     -0.132220
    133 C47       -11.9540    1.8810   -0.1270 ca        1 MOL      0.226884
    134 O20       -13.3010    1.7230    0.1720 oh        1 MOL     -0.511837
    135 H56        -5.2300    3.0200   -1.3320 hn        1 MOL      0.248753
    136 H57        -6.9610    2.3840    0.8360 h1        1 MOL      0.027485
    137 H58        -7.5730    2.3090   -2.1520 hc        1 MOL      0.036089
    138 H59        -7.6910    3.7130   -1.1070 hc        1 MOL      0.036089
    139 H60        -8.9930    2.9980    1.3400 ha        1 MOL      0.174574
    140 H61        -9.6450    1.3380   -2.6530 ha        1 MOL      0.174574
    141 H62       -11.4050    2.5860    1.8140 ha        1 MOL      0.115224
    142 H63       -12.0470    0.9570   -2.0480 ha        1 MOL      0.115224
    143 H64       -13.7920    1.2040   -0.4680 ho        1 MOL      0.381072
    144 N13        -6.2470   -0.2610   -1.1740 n         1 MOL     -0.484989
    145 C48        -6.3340   -1.7730   -1.2520 c3        1 MOL     -0.010782
    146 C49        -5.7230   -2.4350   -0.0270 c         1 MOL      0.275527
    147 O21        -6.2690   -3.4880    0.4010 o         1 MOL     -0.508856
    148 C50        -5.6220   -2.3340   -2.4840 c3        1 MOL     -0.009727
    149 C51        -5.9570   -3.7430   -2.8640 c3        1 MOL     -0.234477
    150 C52        -5.4110   -4.1000   -4.1940 c         1 MOL      0.739827
    151 O22        -4.1920   -4.0330   -4.3460 o         1 MOL     -0.748068
    152 O23        -6.1980   -4.5190   -5.0590 o         1 MOL     -0.748068
    153 H65        -6.0520    0.2260   -2.0400 hn        1 MOL      0.255483
    154 H66        -7.4000   -1.9850   -1.3660 h1        1 MOL      0.099305
    155 H67        -4.5440   -2.3840   -2.3560 hc        1 MOL      0.050373
    156 H68        -5.8500   -1.7050   -3.3450 hc        1 MOL      0.050373
    157 H69        -7.0470   -3.8400   -2.8700 hc        1 MOL      0.033766
    158 H70        -5.5640   -4.3530   -2.0550 hc        1 MOL      0.033766
    159 N14        -4.6030   -1.9070    0.4590 n         1 MOL      0.109165
    160 C53        -3.8430   -2.4140    1.5370 c3        1 MOL     -0.349439
    161 C54        -4.4610   -2.0730    2.8590 c         1 MOL      0.501656
    162 O24        -4.3410   -2.8560    3.7950 o         1 MOL     -0.555491
    163 C55        -2.4060   -1.8210    1.3120 c3        1 MOL      0.285058
    164 C56        -1.6550   -2.1930    0.0440 c3        1 MOL      0.049682
    165 C57        -0.2980   -1.4810   -0.0250 c         1 MOL      0.654532
    166 O25         0.7350   -2.1070   -0.3830 o         1 MOL     -0.730319
    167 O26        -0.1710   -0.2240    0.2180 o         1 MOL     -0.730319
    168 H71        -4.2530   -1.0420    0.0830 hn        1 MOL      0.059438
    169 H72        -3.8280   -3.5080    1.4870 h1        1 MOL      0.149102
    170 H73        -1.7390   -2.0090    2.1610 hc        1 MOL     -0.021311
    171 H74        -2.6340   -0.7550    1.2270 hc        1 MOL     -0.021311
    172 H75        -2.2410   -1.8980   -0.8240 hc        1 MOL     -0.027062
    173 H76        -1.4960   -3.2660    0.0870 hc        1 MOL     -0.027062
    174 N15        -5.2250   -0.9550    3.0120 n         1 MOL     -0.024482
    175 C58        -5.7460   -0.4610    4.2200 c3        1 MOL     -0.242138
    176 H77        -4.9330   -0.3020    4.9280 h1        1 MOL      0.077726
    177 H78        -6.2580    0.4840    4.0370 h1        1 MOL      0.077726
    178 H79        -6.4510   -1.1830    4.6330 h1        1 MOL      0.077726
    179 H80        -5.2830   -0.3770    2.1780 hn        1 MOL      0.063611
    180 Ca1         2.2070    0.1780   -0.8900 Ca        1 MOL      1.738035
    181 O27         1.5730    2.5690   -1.7480 oh        1 MOL     -0.870783
    182 H81         2.2470    2.4460   -2.4320 ho        1 MOL      0.403498
    183 H82         1.2300    3.4540   -1.9040 ho        1 MOL      0.403498
    184 O28         1.2630   -0.2340   -3.4120 oh        1 MOL     -0.870783
    185 H83         1.9060   -0.8200   -3.7940 ho        1 MOL      0.403498
    186 H84         0.5390   -0.2520   -4.0380 ho        1 MOL      0.403498
@<TRIPOS>BOND
     1    1    2 1   
     2    1    4 1   
     3    1    5 1   
     4    1    6 1   
     5    2    3 2   
     6    2    7 1   
     7    7    8 1   
     8    7   15 1   
     9    8    9 1   
    10    8   11 1   
    11    8   16 1   
    12    9   10 2   
    13    9   19 1   
    14   11   12 1   
    15   11   17 1   
    16   11   18 1   
    17   12   13 1   
    18   12   14 1   
    19   19   20 1   
    20   19   27 1   
    21   20   21 1   
    22   20   23 1   
    23   20   28 1   
    24   21   22 2   
    25   21   38 1   
    26   23   24 1   
    27   23   25 1   
    28   23   29 1   
    29   24   26 1   
    30   24   30 1   
    31   24   31 1   
    32   25   32 1   
    33   25   33 1   
    34   25   34 1   
    35   26   35 1   
    36   26   36 1   
    37   26   37 1   
    38   38   39 1   
    39   38   46 1   
    40   39   40 1   
    41   39   42 1   
    42   39   47 1   
    43   40   41 2   
    44   40   50 1   
    45   42   43 1   
    46   42   48 1   
    47   42   49 1   
    48   43   44 1   
    49   43   45 1   
    50   50   51 1   
    51   50   54 1   
    52   51   52 1   
    53   51   55 1   
    54   51   56 1   
    55   52   53 2   
    56   52   57 1   
    57   57   58 1   
    58   57   65 1   
    59   58   59 1   
    60   58   61 1   
    61   58   66 1   
    62   59   60 2   
    63   59   69 1   
    64   61   62 1   
    65   61   67 1   
    66   61   68 1   
    67   62   63 1   
    68   62   64 1   
    69   69   70 1   
    70   69   73 1   
    71   70   71 1   
    72   70   74 1   
    73   70   75 1   
    74   71   72 2   
    75   71   76 1   
    76   76   77 1   
    77   76   85 1   
    78   77   78 1   
    79   77   80 1   
    80   77   86 1   
    81   78   79 2   
    82   78   93 1   
    83   80   81 1   
    84   80   87 1   
    85   80   88 1   
    86   81   82 1   
    87   81   89 1   
    88   81   90 1   
    89   82   83 1   
    90   82   84 2   
    91   83   91 1   
    92   83   92 1   
    93   93   94 1   
    94   93  100 1   
    95   94   95 1   
    96   94   97 1   
    97   94  101 1   
    98   95   96 2   
    99   95  109 1   
   100   97   98 1   
   101   97   99 1   
   102   97  102 1   
   103   98  103 1   
   104   98  104 1   
   105   98  105 1   
   106   99  106 1   
   107   99  107 1   
   108   99  108 1   
   109  109  110 1   
   110  109  117 1   
   111  110  111 1   
   112  110  113 1   
   113  110  118 1   
   114  111  112 2   
   115  111  123 1   
   116  113  114 1   
   117  113  119 1   
   118  113  120 1   
   119  114  115 1   
   120  114  116 2   
   121  115  121 1   
   122  115  122 1   
   123  123  124 1   
   124  123  135 1   
   125  124  125 1   
   126  124  127 1   
   127  124  136 1   
   128  125  126 2   
   129  125  144 1   
   130  127  128 1   
   131  127  137 1   
   132  127  138 1   
   133  128  129 ar  
   134  128  130 ar  
   135  129  131 ar  
   136  129  139 1   
   137  130  132 ar  
   138  130  140 1   
   139  131  133 ar  
   140  131  141 1   
   141  132  133 ar  
   142  132  142 1   
   143  133  134 1   
   144  134  143 1   
   145  144  145 1   
   146  144  153 1   
   147  145  146 1   
   148  145  148 1   
   149  145  154 1   
   150  146  147 2   
   151  146  159 1   
   152  148  149 1   
   153  148  155 1   
   154  148  156 1   
   155  149  150 1   
   156  149  157 1   
   157  149  158 1   
   158  150  151 1   
   159  150  152 1   
   160  159  160 1   
   161  159  168 1   
   162  160  161 1   
   163  160  163 1   
   164  160  169 1   
   165  161  162 2   
   166  161  174 1   
   167  163  164 1   
   168  163  170 1   
   169  163  171 1   
   170  164  165 1   
   171  164  172 1   
   172  164  173 1   
   173  165  166 1   
   174  165  167 1   
   175  174  175 1   
   176  174  179 1   
   177  175  176 1   
   178  175  177 1   
   179  175  178 1   
   180  181  182 1   
   181  181  183 1   
   182  184  185 1   
   183  184  186 1   
@<TRIPOS>SUBSTRUCTURE
     1 MOL         1 TEMP              0 ****  ****    0 ROOT
