@<TRIPOS>MOLECULE
MOL
  178   175     1     0     0
SMALL
resp


@<TRIPOS>ATOM
      1 C1         -0.6640    4.1470    5.3550 c3        1 MOL     -0.311350
      2 C2         -1.0210    3.5970    3.9850 c         1 MOL      0.798552
      3 O1         -0.1890    3.7320    3.1270 o         1 MOL     -0.607789
      4 H1         -0.9100    3.4080    6.1180 hc        1 MOL      0.069401
      5 H2          0.4030    4.3660    5.3920 hc        1 MOL      0.069401
      6 H3         -1.2310    5.0600    5.5380 hc        1 MOL      0.069401
      7 N1         -2.1630    2.8660    3.7750 n         1 MOL     -0.737620
      8 C3         -2.5410    2.2880    2.4580 c3        1 MOL      0.281613
      9 C4         -3.1130    3.4720    1.6670 c         1 MOL      0.463863
     10 O2         -4.1580    3.9350    1.9990 o         1 MOL     -0.541062
     11 C5         -3.4200    1.0520    2.7290 c3        1 MOL     -0.137666
     12 C6         -3.9830    0.3730    1.5520 c         1 MOL      0.784637
     13 O3         -4.9450   -0.4570    1.7410 o         1 MOL     -0.786441
     14 O4         -3.5140    0.6450    0.4680 o         1 MOL     -0.786441
     15 H4         -2.8550    2.9130    4.5120 hn        1 MOL      0.334007
     16 H5         -1.6190    1.9150    1.9970 h1        1 MOL     -0.004117
     17 H6         -4.3370    1.4360    3.1830 hc        1 MOL      0.032479
     18 H7         -2.9360    0.3280    3.3920 hc        1 MOL      0.032479
     19 N2         -2.4120    3.9510    0.6300 n         1 MOL     -0.213248
     20 C7         -2.6560    5.2350   -0.0680 c3        1 MOL      0.140449
     21 C8         -3.8160    5.0760   -1.0430 c         1 MOL      0.508005
     22 O5         -4.4570    6.0610   -1.3780 o         1 MOL     -0.600464
     23 C9         -1.3670    5.6940   -0.6970 c3        1 MOL     -0.455490
     24 H8         -1.7770    3.2770    0.2280 hn        1 MOL      0.143566
     25 H9         -3.0030    5.9290    0.6990 h1        1 MOL      0.056076
     26 H10        -0.8810    4.8590   -1.2110 hc        1 MOL      0.126062
     27 H11        -1.5400    6.3800   -1.5250 hc        1 MOL      0.126062
     28 H12        -0.6480    6.0190    0.0530 hc        1 MOL      0.126062
     29 N3         -4.3250    3.8490   -1.3140 n         1 MOL     -0.179369
     30 C10        -5.6260    3.6890   -2.0360 c3        1 MOL     -0.004832
     31 C11        -6.5750    2.8420   -1.2550 c         1 MOL      0.421331
     32 O6         -7.6810    2.6040   -1.7410 o         1 MOL     -0.553805
     33 C12        -5.3150    3.0960   -3.4640 c3        1 MOL     -0.313695
     34 C13        -4.4010    1.8150   -3.5640 c         1 MOL      0.839340
     35 O7         -4.3210    1.3410   -4.7070 o         1 MOL     -0.719890
     36 O8         -3.9010    1.2960   -2.5610 o         1 MOL     -0.719890
     37 H13        -3.6780    3.0880   -1.2400 hn        1 MOL      0.110546
     38 H14        -6.1060    4.6760   -2.0790 h1        1 MOL      0.129144
     39 H15        -4.8040    3.8270   -4.0990 hc        1 MOL      0.080871
     40 H16        -6.2280    2.7960   -3.9740 hc        1 MOL      0.080871
     41 N4         -6.1870    2.4110   -0.0510 n         1 MOL     -0.046279
     42 C14        -7.1000    1.7250    0.8170 c3        1 MOL     -0.144207
     43 C15        -7.5400    0.3300    0.3750 c         1 MOL      0.426696
     44 O9         -8.5390   -0.1600    0.9720 o         1 MOL     -0.597605
     45 H17        -5.2380    2.5140    0.2620 hn        1 MOL     -0.073245
     46 H18        -7.9850    2.3090    1.0460 h1        1 MOL      0.108823
     47 H19        -6.6180    1.6270    1.7930 h1        1 MOL      0.108823
     48 N5         -6.8440   -0.2980   -0.4980 n         1 MOL     -0.145764
     49 C16        -7.1130   -1.6070   -1.0460 c3        1 MOL     -0.144624
     50 C17        -6.9930   -2.8090   -0.1090 c         1 MOL      0.521734
     51 O10        -7.4180   -3.8630   -0.5920 o         1 MOL     -0.603131
     52 C18        -6.3130   -1.8280   -2.3550 c3        1 MOL     -0.057903
     53 C19        -4.9150   -2.4800   -2.0690 c         1 MOL      0.460098
     54 N6         -4.6120   -3.6020   -2.7010 n         1 MOL     -0.732553
     55 O11        -4.0910   -1.9180   -1.4110 o         1 MOL     -0.512010
     56 H20        -5.9690    0.1210   -0.7840 hn        1 MOL      0.237459
     57 H21        -8.1560   -1.5680   -1.3760 h1        1 MOL      0.125634
     58 H22        -6.1770   -0.8590   -2.8470 hc        1 MOL      0.053660
     59 H23        -6.8570   -2.4590   -3.0550 hc        1 MOL      0.053660
     60 H24        -5.2090   -4.1310   -3.3280 hn        1 MOL      0.353887
     61 H25        -3.8510   -4.1430   -2.3180 hn        1 MOL      0.353887
     62 N7         -6.4660   -2.7440    1.0830 n         1 MOL     -0.255474
     63 C20        -6.3270   -3.7860    2.1330 c3        1 MOL     -0.105355
     64 C21        -4.8060   -4.2390    2.3380 c         1 MOL      0.517570
     65 O12        -4.5610   -5.1460    3.0910 o         1 MOL     -0.556658
     66 H26        -6.0180   -1.8570    1.2430 hn        1 MOL      0.312024
     67 H27        -6.9090   -4.7000    2.0030 h1        1 MOL      0.093698
     68 H28        -6.6600   -3.3800    3.0940 h1        1 MOL      0.093698
     69 N8         -3.8370   -3.6400    1.6100 n         1 MOL     -0.356512
     70 C22        -2.4220   -4.0610    1.5970 c3        1 MOL      0.064800
     71 C23        -1.4740   -2.9780    1.4200 c         1 MOL      0.358694
     72 O13        -1.8870   -1.9500    0.8760 o         1 MOL     -0.423600
     73 C24        -2.1120   -5.0710    0.4880 c3        1 MOL      0.355012
     74 C25        -3.0030   -6.3510    0.5910 c3        1 MOL     -0.430945
     75 O14        -2.4790   -4.5320   -0.7990 oh        1 MOL     -0.650329
     76 H29        -4.0500   -2.9410    0.9100 hn        1 MOL      0.318728
     77 H30        -2.1410   -4.6100    2.4980 h1        1 MOL      0.078796
     78 H31        -1.0870   -5.4120    0.5370 h1        1 MOL      0.012207
     79 H32        -2.3310   -5.2230   -1.4570 ho        1 MOL      0.390491
     80 H33        -2.9410   -6.6870    1.6260 hc        1 MOL      0.112390
     81 H34        -4.0210   -6.0770    0.3120 hc        1 MOL      0.112390
     82 H35        -2.7010   -7.0540   -0.1800 hc        1 MOL      0.112390
     83 N9         -0.1430   -3.1780    1.7830 n         1 MOL     -0.291266
     84 C26         0.9680   -2.2580    1.4520 c3        1 MOL     -0.033001
     85 C27         2.0110   -2.8100    0.5680 c         1 MOL      0.487870
     86 O15         2.5290   -3.9150    0.8690 o         1 MOL     -0.567825
     87 C28         1.4680   -1.5630    2.7700 c3        1 MOL      0.505453
     88 C29         1.8970   -2.6000    3.8660 c3        1 MOL     -0.127958
     89 C30         0.3950   -0.7230    3.4750 c3        1 MOL     -0.348792
     90 C31         2.7820   -2.0230    5.0100 c3        1 MOL     -0.107214
     91 H36         0.1420   -3.9690    2.3440 hn        1 MOL      0.194038
     92 H37         0.5020   -1.4050    0.9500 h1        1 MOL     -0.120778
     93 H38         2.3270   -0.9310    2.5420 hc        1 MOL     -0.221890
     94 H39         2.6250   -3.2790    3.4280 hc        1 MOL      0.029161
     95 H40         1.0540   -3.1690    4.2670 hc        1 MOL      0.029161
     96 H41        -0.0650    0.0560    2.8700 hc        1 MOL      0.078650
     97 H42        -0.4050   -1.3230    3.9260 hc        1 MOL      0.078650
     98 H43         0.9390   -0.1320    4.2120 hc        1 MOL      0.078650
     99 H44         3.4640   -1.2940    4.5840 hc        1 MOL      0.019903
    100 H45         2.1640   -1.5730    5.7960 hc        1 MOL      0.019903
    101 H46         3.4640   -2.7370    5.4590 hc        1 MOL      0.019903
    102 N10         2.2430   -2.0140   -0.5330 n         1 MOL     -0.405080
    103 C32         3.3760   -2.0690   -1.5270 c3        1 MOL      0.274001
    104 C33         4.6010   -1.5720   -0.8730 c         1 MOL      0.421195
    105 O16         4.5590   -0.9560    0.2070 o         1 MOL     -0.409724
    106 C34         2.9850   -1.2180   -2.7760 c3        1 MOL     -0.474857
    107 C35         3.7940   -1.4720   -3.9930 c         1 MOL      0.746067
    108 O17         4.6560   -2.3570   -4.0200 o         1 MOL     -0.714722
    109 O18         3.7560   -0.6650   -4.9940 o         1 MOL     -0.714722
    110 H47         1.7090   -1.1660   -0.6540 hn        1 MOL      0.327629
    111 H48         3.5140   -3.1140   -1.8070 h1        1 MOL      0.042230
    112 H49         2.9360   -0.1560   -2.5300 hc        1 MOL      0.115773
    113 H50         2.0050   -1.6220   -3.0260 hc        1 MOL      0.115773
    114 N11         5.8580   -1.6590   -1.4230 n         1 MOL     -0.612375
    115 C36         7.0890   -1.3530   -0.7630 c3        1 MOL      0.524417
    116 C37         7.2000    0.1160   -0.2930 c         1 MOL      0.151811
    117 O19         7.7210    0.3700    0.8090 o         1 MOL     -0.475243
    118 C38         8.2650   -1.7970   -1.7070 c3        1 MOL     -0.374703
    119 C39         9.5880   -1.3210   -1.2050 ca        1 MOL      0.225176
    120 C40        10.0080   -1.8460    0.0580 ca        1 MOL     -0.245751
    121 C41        10.5090   -0.6210   -2.0060 ca        1 MOL     -0.245751
    122 C42        11.2080   -1.4470    0.6170 ca        1 MOL     -0.046846
    123 C43        11.7280   -0.2330   -1.3690 ca        1 MOL     -0.046846
    124 C44        12.0630   -0.6350   -0.0930 ca        1 MOL     -0.171275
    125 H51         5.9380   -2.0450   -2.3410 hn        1 MOL      0.281358
    126 H52         7.0930   -2.0450    0.0860 h1        1 MOL      0.025800
    127 H53         8.0310   -1.3040   -2.6440 hc        1 MOL      0.117351
    128 H54         8.2610   -2.8900   -1.6570 hc        1 MOL      0.117351
    129 H55         9.2930   -2.4100    0.6350 ha        1 MOL      0.129226
    130 H56        10.3380   -0.3140   -3.0250 ha        1 MOL      0.129226
    131 H57        11.4200   -1.8210    1.6070 ha        1 MOL      0.091153
    132 H58        12.4370    0.3350   -1.9580 ha        1 MOL      0.091153
    133 H59        13.0410   -0.4720    0.3430 ha        1 MOL      0.100280
    134 N12         6.8020    1.1730   -0.9870 n         1 MOL      0.040669
    135 C45         6.8040    2.5630   -0.5620 c3        1 MOL      0.049845
    136 C46         5.8320    2.8760    0.5620 c         1 MOL      0.261842
    137 O20         6.1030    3.6110    1.5210 o         1 MOL     -0.492866
    138 C47         6.5750    3.3850   -1.8080 c3        1 MOL     -0.014242
    139 C48         6.8460    2.4410   -2.9820 c3        1 MOL     -0.175927
    140 C49         6.2720    1.2020   -2.3140 c3        1 MOL     -0.100144
    141 H60         7.7780    2.7800   -0.1300 h1        1 MOL      0.066742
    142 H61         5.5060    3.6040   -1.8250 hc        1 MOL      0.017212
    143 H62         7.2620    4.2250   -1.8360 hc        1 MOL      0.017212
    144 H63         6.2740    2.7010   -3.8770 hc        1 MOL      0.079796
    145 H64         7.9310    2.5290   -3.0850 hc        1 MOL      0.079796
    146 H65         5.1840    1.2420   -2.2580 h1        1 MOL      0.088695
    147 H66         6.6050    0.3190   -2.8700 h1        1 MOL      0.088695
    148 N13         4.6650    2.2170    0.5340 n         1 MOL     -0.061002
    149 C50         3.6950    2.2480    1.7430 c3        1 MOL     -0.358852
    150 C51         4.3370    1.4660    2.9310 c         1 MOL      0.597669
    151 O21         4.1630    1.8290    4.1020 o         1 MOL     -0.616791
    152 C52         2.2580    1.8010    1.3800 c3        1 MOL      0.230098
    153 C53         1.4920    2.5470    0.2560 c3        1 MOL     -0.403216
    154 C54         0.3700    1.6610   -0.3720 c         1 MOL      0.792625
    155 O22        -0.8170    2.0120   -0.5740 o         1 MOL     -0.705466
    156 O23         0.5320    0.4870   -0.8110 o         1 MOL     -0.705466
    157 H67         4.5130    1.4850   -0.1360 hn        1 MOL      0.169679
    158 H68         3.5690    3.3140    1.9140 h1        1 MOL      0.159109
    159 H69         1.5900    1.8160    2.2350 hc        1 MOL      0.063210
    160 H70         2.4080    0.7620    1.0630 hc        1 MOL      0.063210
    161 H71         2.2080    2.7390   -0.5440 hc        1 MOL      0.093378
    162 H72         1.1680    3.5050    0.6560 hc        1 MOL      0.093378
    163 N14         5.0230    0.3770    2.6840 n         1 MOL      0.120630
    164 C55         5.8390   -0.2450    3.7150 c3        1 MOL     -0.131837
    165 H73         5.1940   -0.7590    4.4280 h1        1 MOL      0.055487
    166 H74         6.5190   -0.9640    3.2580 h1        1 MOL      0.055487
    167 H75         6.4150    0.5200    4.2340 h1        1 MOL      0.055487
    168 H76         5.2300    0.2570    1.7060 hn        1 MOL     -0.077027
    169 Ca1        -2.2020   -0.1140   -1.4940 Ca        1 MOL      1.780261
    170 O24        -0.3550    0.5770   -3.5560 oh        1 MOL     -0.880545
    171 H77         0.5150    0.2910   -3.3030 ho        1 MOL      0.416744
    172 H78        -0.2540    0.8870   -4.4610 ho        1 MOL      0.416744
    173 O25        -0.8770   -2.5780   -1.9280 oh        1 MOL     -0.880545
    174 H79        -1.3690   -3.1620   -1.3600 ho        1 MOL      0.416744
    175 H80        -1.0080   -2.9210   -2.8090 ho        1 MOL      0.416744
    176 O26        -3.1270   -1.0590   -3.9900 oh        1 MOL     -0.880545
    177 H81        -3.4700   -0.1570   -4.0350 ho        1 MOL      0.416744
    178 H82        -3.5400   -1.5020   -4.7280 ho        1 MOL      0.416744
@<TRIPOS>BOND
     1    1    2 1   
     2    1    4 1   
     3    1    5 1   
     4    1    6 1   
     5    2    3 2   
     6    2    7 1   
     7    7    8 1   
     8    7   15 1   
     9    8    9 1   
    10    8   11 1   
    11    8   16 1   
    12    9   10 2   
    13    9   19 1   
    14   11   12 1   
    15   11   17 1   
    16   11   18 1   
    17   12   13 1   
    18   12   14 1   
    19   19   20 1   
    20   19   24 1   
    21   20   21 1   
    22   20   23 1   
    23   20   25 1   
    24   21   22 2   
    25   21   29 1   
    26   23   26 1   
    27   23   27 1   
    28   23   28 1   
    29   29   30 1   
    30   29   37 1   
    31   30   31 1   
    32   30   33 1   
    33   30   38 1   
    34   31   32 2   
    35   31   41 1   
    36   33   34 1   
    37   33   39 1   
    38   33   40 1   
    39   34   35 1   
    40   34   36 1   
    41   41   42 1   
    42   41   45 1   
    43   42   43 1   
    44   42   46 1   
    45   42   47 1   
    46   43   44 2   
    47   43   48 1   
    48   48   49 1   
    49   48   56 1   
    50   49   50 1   
    51   49   52 1   
    52   49   57 1   
    53   50   51 2   
    54   50   62 1   
    55   52   53 1   
    56   52   58 1   
    57   52   59 1   
    58   53   54 1   
    59   53   55 2   
    60   54   60 1   
    61   54   61 1   
    62   62   63 1   
    63   62   66 1   
    64   63   64 1   
    65   63   67 1   
    66   63   68 1   
    67   64   65 2   
    68   64   69 1   
    69   69   70 1   
    70   69   76 1   
    71   70   71 1   
    72   70   73 1   
    73   70   77 1   
    74   71   72 2   
    75   71   83 1   
    76   73   74 1   
    77   73   75 1   
    78   73   78 1   
    79   74   80 1   
    80   74   81 1   
    81   74   82 1   
    82   75   79 1   
    83   83   84 1   
    84   83   91 1   
    85   84   85 1   
    86   84   87 1   
    87   84   92 1   
    88   85   86 2   
    89   85  102 1   
    90   87   88 1   
    91   87   89 1   
    92   87   93 1   
    93   88   90 1   
    94   88   94 1   
    95   88   95 1   
    96   89   96 1   
    97   89   97 1   
    98   89   98 1   
    99   90   99 1   
   100   90  100 1   
   101   90  101 1   
   102  102  103 1   
   103  102  110 1   
   104  103  104 1   
   105  103  106 1   
   106  103  111 1   
   107  104  105 2   
   108  104  114 1   
   109  106  107 1   
   110  106  112 1   
   111  106  113 1   
   112  107  108 1   
   113  107  109 1   
   114  114  115 1   
   115  114  125 1   
   116  115  116 1   
   117  115  118 1   
   118  115  126 1   
   119  116  117 2   
   120  116  134 1   
   121  118  119 1   
   122  118  127 1   
   123  118  128 1   
   124  119  120 ar  
   125  119  121 ar  
   126  120  122 ar  
   127  120  129 1   
   128  121  123 ar  
   129  121  130 1   
   130  122  124 ar  
   131  122  131 1   
   132  123  124 ar  
   133  123  132 1   
   134  124  133 1   
   135  134  135 1   
   136  134  140 1   
   137  135  136 1   
   138  135  138 1   
   139  135  141 1   
   140  136  137 2   
   141  136  148 1   
   142  138  139 1   
   143  138  142 1   
   144  138  143 1   
   145  139  140 1   
   146  139  144 1   
   147  139  145 1   
   148  140  146 1   
   149  140  147 1   
   150  148  149 1   
   151  148  157 1   
   152  149  150 1   
   153  149  152 1   
   154  149  158 1   
   155  150  151 2   
   156  150  163 1   
   157  152  153 1   
   158  152  159 1   
   159  152  160 1   
   160  153  154 1   
   161  153  161 1   
   162  153  162 1   
   163  154  155 1   
   164  154  156 1   
   165  163  164 1   
   166  163  168 1   
   167  164  165 1   
   168  164  166 1   
   169  164  167 1   
   170  170  171 1   
   171  170  172 1   
   172  173  174 1   
   173  173  175 1   
   174  176  177 1   
   175  176  178 1   
@<TRIPOS>SUBSTRUCTURE
     1 MOL         1 TEMP              0 ****  ****    0 ROOT
