@<TRIPOS>MOLECULE
MOL
  183   181     1     0     0
SMALL
resp


@<TRIPOS>ATOM
      1 C1          0.6270    2.2660   -6.2450 c3        1 MOL     -0.318521
      2 C2          1.0710    2.3460   -4.7700 c         1 MOL      0.804397
      3 O1          0.2180    2.5670   -3.9180 o         1 MOL     -0.609900
      4 H1         -0.4620    2.2650   -6.2970 hc        1 MOL      0.065217
      5 H2          1.0150    3.1270   -6.7890 hc        1 MOL      0.065217
      6 H3          1.0130    1.3500   -6.6920 hc        1 MOL      0.065217
      7 N1          2.3230    2.1300   -4.4620 n         1 MOL     -0.728052
      8 C3          2.8260    1.9920   -3.0610 c3        1 MOL      0.257039
      9 C4          3.0710    3.3220   -2.4220 c         1 MOL      0.655162
     10 O2          3.7450    4.1320   -2.9650 o         1 MOL     -0.598311
     11 C5          4.0200    1.0110   -3.0230 c3        1 MOL     -0.252568
     12 C6          4.4590    0.4240   -1.6100 c         1 MOL      0.961792
     13 O3          5.6350   -0.0900   -1.6360 o         1 MOL     -0.751695
     14 O4          3.7580    0.5830   -0.5620 o         1 MOL     -0.751695
     15 H4          2.8770    1.7650   -5.2190 hn        1 MOL      0.334875
     16 H5          2.0000    1.5490   -2.5030 h1        1 MOL      0.029645
     17 H6          4.8680    1.5620   -3.4290 hc        1 MOL      0.035763
     18 H7          3.7910    0.1150   -3.6040 hc        1 MOL      0.035763
     19 N2          2.6210    3.5570   -1.1930 n         1 MOL     -0.405207
     20 C7          2.7710    4.8390   -0.4550 c3        1 MOL      0.010883
     21 C8          4.0010    4.8660    0.4110 c         1 MOL      0.466308
     22 O5          4.6170    5.8730    0.6540 o         1 MOL     -0.575212
     23 C9          1.3790    5.1550    0.2430 c3        1 MOL      0.145170
     24 C10         0.4580    5.9780   -0.6420 c3        1 MOL     -0.135910
     25 C11         1.5620    5.9250    1.5950 c3        1 MOL     -0.156548
     26 C12         0.0170    5.2730   -1.8790 c3        1 MOL      0.030871
     27 H8          2.1440    2.8950   -0.6050 hn        1 MOL      0.153684
     28 H9          2.9840    5.6330   -1.1720 h1        1 MOL      0.063738
     29 H10         0.9820    4.1850    0.5600 hc        1 MOL      0.020878
     30 H11         0.9490    6.9400   -0.8080 hc        1 MOL      0.024041
     31 H12        -0.4330    6.1910   -0.0540 hc        1 MOL      0.024041
     32 H13         0.6590    6.3020    2.0690 hc        1 MOL      0.030782
     33 H14         2.0880    5.3240    2.3310 hc        1 MOL      0.030782
     34 H15         2.1330    6.8440    1.4310 hc        1 MOL      0.030782
     35 H16        -0.5710    5.9770   -2.4720 hc        1 MOL     -0.008304
     36 H17         0.8030    4.8520   -2.4960 hc        1 MOL     -0.008304
     37 H18        -0.6950    4.4740   -1.6580 hc        1 MOL     -0.008304
     38 N3          4.2990    3.6980    0.9670 n         1 MOL     -0.231140
     39 C13         5.3780    3.4780    1.9820 c3        1 MOL     -0.010407
     40 C14         6.5680    2.6190    1.6330 c         1 MOL      0.408782
     41 O6          7.5040    2.5110    2.4240 o         1 MOL     -0.522488
     42 C15         4.7020    3.0030    3.3260 c3        1 MOL     -0.127171
     43 C16         3.6720    1.8700    3.2060 c         1 MOL      0.793380
     44 O7          3.7600    1.0360    2.2740 o         1 MOL     -0.719525
     45 O8          2.7880    1.7280    4.0480 o         1 MOL     -0.719525
     46 H19         3.7260    2.8770    0.8530 hn        1 MOL      0.199126
     47 H20         5.8040    4.4520    2.2190 h1        1 MOL      0.087968
     48 H21         4.1720    3.7930    3.8570 hc        1 MOL      0.027086
     49 H22         5.4490    2.7490    4.0620 hc        1 MOL      0.027086
     50 N4          6.5900    2.0350    0.4010 n         1 MOL     -0.118772
     51 C17         7.8740    1.6430   -0.2050 c3        1 MOL     -0.263692
     52 C18         8.3030    0.2480    0.2380 c         1 MOL      0.546049
     53 O9          9.5120   -0.0460    0.3760 o         1 MOL     -0.614614
     54 H23         5.7740    2.0520   -0.1870 hn        1 MOL      0.120002
     55 H24         8.5670    2.4360    0.0470 h1        1 MOL      0.114855
     56 H25         7.7690    1.6810   -1.2990 h1        1 MOL      0.114855
     57 N5          7.3340   -0.6170    0.4860 n         1 MOL     -0.219012
     58 C19         7.5110   -2.0040    0.9920 c3        1 MOL      0.123046
     59 C20         7.3830   -3.0260   -0.1560 c         1 MOL      0.363948
     60 O10         8.0020   -4.1030   -0.1790 o         1 MOL     -0.576362
     61 C21         6.5070   -2.2650    2.1710 c3        1 MOL     -0.161637
     62 C22         5.0760   -2.0560    1.9390 c         1 MOL      0.748340
     63 O11         4.3710   -1.6550    2.8870 o         1 MOL     -0.717856
     64 O12         4.4040   -2.4160    0.9270 o         1 MOL     -0.717856
     65 H26         6.4170   -0.2850    0.2610 hn        1 MOL      0.126557
     66 H27         8.5220   -2.1700    1.3520 h1        1 MOL      0.046677
     67 H28         6.7590   -1.5790    2.9770 hc        1 MOL      0.047459
     68 H29         6.7670   -3.2720    2.4990 hc        1 MOL      0.047459
     69 N6          6.5070   -2.8050   -1.1350 n         1 MOL     -0.117057
     70 C23         6.2230   -3.7410   -2.2770 c3        1 MOL     -0.069719
     71 C24         4.9000   -4.4660   -2.2450 c         1 MOL      0.490889
     72 O13         4.6980   -5.4670   -2.9420 o         1 MOL     -0.621365
     73 H30         5.9520   -1.9570   -1.1160 hn        1 MOL      0.127254
     74 H31         7.0490   -4.4400   -2.4270 h1        1 MOL      0.054061
     75 H32         6.2550   -3.0920   -3.1580 h1        1 MOL      0.054061
     76 N7          4.0160   -3.9300   -1.5060 n         1 MOL     -0.094553
     77 C25         2.5620   -4.3440   -1.6660 c3        1 MOL     -0.057896
     78 C26         1.6170   -3.0750   -1.5580 c         1 MOL      0.499945
     79 O14         2.0950   -1.9790   -1.3650 o         1 MOL     -0.648515
     80 C27         2.1450   -5.4360   -0.6030 c3        1 MOL      0.080474
     81 C28         2.2850   -5.2030    0.9310 c3        1 MOL     -0.262111
     82 C29         1.1360   -4.3360    1.5110 c         1 MOL      0.634817
     83 N8          0.1130   -5.0080    2.0500 n         1 MOL     -0.729775
     84 O15         1.1610   -3.1460    1.4790 o         1 MOL     -0.606662
     85 H33         4.2530   -3.3140   -0.7430 hn        1 MOL      0.151297
     86 H34         2.4040   -4.8360   -2.6280 h1        1 MOL      0.066555
     87 H35         2.6180   -6.3870   -0.8650 hc        1 MOL     -0.012700
     88 H36         1.0890   -5.6230   -0.7620 hc        1 MOL     -0.012700
     89 H37         3.2630   -4.7690    1.1140 hc        1 MOL      0.077557
     90 H38         2.1980   -6.1810    1.4000 hc        1 MOL      0.077557
     91 H39         0.2150   -5.9790    2.3020 hn        1 MOL      0.344871
     92 H40        -0.6110   -4.3870    2.3680 hn        1 MOL      0.344871
     93 N9          0.3510   -3.2900   -1.7300 n         1 MOL     -0.329094
     94 C30        -0.7170   -2.3340   -1.8860 c3        1 MOL     -0.118275
     95 C31        -1.8700   -2.8620   -1.1010 c         1 MOL      0.388177
     96 O16        -2.5490   -3.7480   -1.5380 o         1 MOL     -0.571290
     97 C32        -1.0520   -2.0760   -3.3120 c3        1 MOL      0.408563
     98 C33        -2.0000   -0.8730   -3.5690 c3        1 MOL     -0.379354
     99 C34         0.1400   -1.8310   -4.1890 c3        1 MOL     -0.379354
    100 H41         0.0270   -4.2270   -1.9300 hn        1 MOL      0.273478
    101 H42        -0.4550   -1.3450   -1.5160 h1        1 MOL      0.089874
    102 H43        -1.5020   -2.9810   -3.7240 hc        1 MOL     -0.073374
    103 H44        -2.3660   -0.9670   -4.5930 hc        1 MOL      0.085140
    104 H45        -2.8990   -0.8370   -2.9540 hc        1 MOL      0.085140
    105 H46        -1.3530   -0.0180   -3.3620 hc        1 MOL      0.085140
    106 H47         0.6010   -2.7590   -4.5170 hc        1 MOL      0.085140
    107 H48        -0.1830   -1.3780   -5.1220 hc        1 MOL      0.085140
    108 H49         0.7990   -1.1200   -3.6900 hc        1 MOL      0.085140
    109 N10        -2.1800   -2.3410    0.0580 n         1 MOL     -0.095992
    110 C35        -3.3870   -2.6020    0.8250 c3        1 MOL     -0.036469
    111 C36        -4.5990   -1.9180    0.2500 c         1 MOL      0.466471
    112 O17        -4.3660   -0.9820   -0.5620 o         1 MOL     -0.358156
    113 C37        -3.3240   -2.2210    2.3270 c3        1 MOL     -0.306118
    114 C38        -2.2180   -2.8610    3.1520 c         1 MOL      0.714680
    115 N11        -1.1230   -2.1570    3.5330 n         1 MOL     -0.758902
    116 O18        -2.3310   -3.9870    3.5980 o         1 MOL     -0.589450
    117 H50        -1.6190   -1.5240    0.2580 hn        1 MOL      0.217647
    118 H51        -3.6250   -3.6660    0.8230 h1        1 MOL      0.072337
    119 H52        -4.2610   -2.3470    2.8730 hc        1 MOL      0.079194
    120 H53        -3.2250   -1.1380    2.2990 hc        1 MOL      0.079194
    121 H54        -1.1270   -1.1460    3.4790 hn        1 MOL      0.360940
    122 H55        -0.4290   -2.6250    4.0990 hn        1 MOL      0.360940
    123 N12        -5.8590   -2.2210    0.5630 n         1 MOL     -0.546140
    124 C39        -7.0400   -1.5150    0.0750 c3        1 MOL      0.139307
    125 C40        -6.9730    0.0120    0.3000 c         1 MOL      0.605855
    126 O19        -7.3920    0.7970   -0.5340 o         1 MOL     -0.499506
    127 C41        -8.3510   -2.1160    0.5870 c3        1 MOL     -0.153919
    128 C42        -9.5790   -1.4630   -0.0490 ca        1 MOL      0.111861
    129 C43        -9.7920   -1.6730   -1.4530 ca        1 MOL     -0.262618
    130 C44       -10.6130   -0.7280    0.5930 ca        1 MOL     -0.262618
    131 C45       -10.9350   -1.1980   -2.1020 ca        1 MOL     -0.163251
    132 C46       -11.6090    0.0040   -0.1370 ca        1 MOL     -0.163251
    133 C47       -11.8170   -0.3320   -1.4770 ca        1 MOL      0.269268
    134 O20       -12.8570    0.2400   -2.1120 oh        1 MOL     -0.475245
    135 H56        -6.0040   -3.0740    1.0970 hn        1 MOL      0.317641
    136 H57        -7.0630   -1.6650   -1.0010 h1        1 MOL      0.092391
    137 H58        -8.3700   -2.1440    1.6760 hc        1 MOL      0.061090
    138 H59        -8.3760   -3.1770    0.3400 hc        1 MOL      0.061090
    139 H60        -9.1450   -2.3370   -2.0070 ha        1 MOL      0.147116
    140 H61       -10.5540   -0.6480    1.6710 ha        1 MOL      0.147116
    141 H62       -11.0500   -1.4040   -3.1580 ha        1 MOL      0.129203
    142 H63       -12.2930    0.6480    0.3960 ha        1 MOL      0.129203
    143 H64       -13.4270    0.6080   -1.4270 ho        1 MOL      0.343769
    144 N13        -6.3930    0.4560    1.4220 n         1 MOL     -0.535541
    145 C48        -6.2050    1.8750    1.7700 c3        1 MOL      0.063084
    146 C49        -5.0910    2.5410    0.9000 c         1 MOL      0.456358
    147 O21        -5.0510    3.7880    0.9170 o         1 MOL     -0.543508
    148 C50        -5.9110    2.0330    3.2360 c3        1 MOL     -0.067580
    149 C51        -4.8000    1.1460    3.7950 c3        1 MOL     -0.033389
    150 C52        -4.6440    1.3370    5.3210 c         1 MOL      0.613939
    151 O22        -4.5060    2.4680    5.8710 o         1 MOL     -0.707833
    152 O23        -4.7270    0.3060    6.0620 o         1 MOL     -0.707833
    153 H65        -6.1470   -0.2970    2.0640 hn        1 MOL      0.327921
    154 H66        -7.0480    2.5150    1.5370 h1        1 MOL      0.053928
    155 H67        -6.8670    1.8210    3.7250 hc        1 MOL      0.036752
    156 H68        -5.5990    3.0530    3.4460 hc        1 MOL      0.036752
    157 H69        -3.8510    1.4770    3.3690 hc        1 MOL     -0.024598
    158 H70        -5.0220    0.1030    3.5810 hc        1 MOL     -0.024598
    159 N14        -4.3640    1.7880    0.0860 n         1 MOL     -0.277620
    160 C53        -3.3950    2.3820   -0.8560 c3        1 MOL      0.044770
    161 C54        -4.0480    2.2750   -2.2470 c         1 MOL      0.365487
    162 O24        -3.8230    3.0730   -3.1900 o         1 MOL     -0.544042
    163 C55        -2.0170    1.6380   -0.8160 c3        1 MOL      0.117223
    164 C56        -1.4600    1.6200    0.6480 c3        1 MOL     -0.085497
    165 C57        -0.1750    0.8400    0.7470 c         1 MOL      0.481637
    166 O25         0.8470    1.4540    1.1110 o         1 MOL     -0.602643
    167 O26        -0.1300   -0.3900    0.6010 o         1 MOL     -0.602643
    168 H71        -4.4190    0.7870    0.1010 hn        1 MOL      0.144294
    169 H72        -3.2580    3.4510   -0.7570 h1        1 MOL      0.092139
    170 H73        -1.3870    2.2690   -1.4440 hc        1 MOL      0.022386
    171 H74        -2.0960    0.6250   -1.2300 hc        1 MOL      0.022386
    172 H75        -2.2180    1.0460    1.1900 hc        1 MOL      0.060160
    173 H76        -1.4060    2.6310    1.0440 hc        1 MOL      0.060160
    174 N15        -4.9200    1.2480   -2.4800 n         1 MOL      0.014501
    175 C58        -5.4990    1.0070   -3.8130 c3        1 MOL     -0.258335
    176 H77        -6.5430    1.3220   -3.8170 h1        1 MOL      0.091383
    177 H78        -4.9450    1.5750   -4.5590 h1        1 MOL      0.091383
    178 H79        -5.4410   -0.0560   -4.0470 h1        1 MOL      0.091383
    179 H80        -5.2060    0.7120   -1.6720 hn        1 MOL     -0.023862
    180 Ca1         2.3790   -0.8380    1.1630 Ca        1 MOL      1.715460
    181 O27         1.4080   -0.5410    3.5980 oh        1 MOL     -0.860437
    182 H81         1.9180    0.2640    3.7610 ho        1 MOL      0.407158
    183 H82         1.0330   -0.7590    4.4440 ho        1 MOL      0.407158
@<TRIPOS>BOND
     1    1    2 1   
     2    1    4 1   
     3    1    5 1   
     4    1    6 1   
     5    2    3 2   
     6    2    7 1   
     7    7    8 1   
     8    7   15 1   
     9    8    9 1   
    10    8   11 1   
    11    8   16 1   
    12    9   10 2   
    13    9   19 1   
    14   11   12 1   
    15   11   17 1   
    16   11   18 1   
    17   12   13 1   
    18   12   14 1   
    19   19   20 1   
    20   19   27 1   
    21   20   21 1   
    22   20   23 1   
    23   20   28 1   
    24   21   22 2   
    25   21   38 1   
    26   23   24 1   
    27   23   25 1   
    28   23   29 1   
    29   24   26 1   
    30   24   30 1   
    31   24   31 1   
    32   25   32 1   
    33   25   33 1   
    34   25   34 1   
    35   26   35 1   
    36   26   36 1   
    37   26   37 1   
    38   38   39 1   
    39   38   46 1   
    40   39   40 1   
    41   39   42 1   
    42   39   47 1   
    43   40   41 2   
    44   40   50 1   
    45   42   43 1   
    46   42   48 1   
    47   42   49 1   
    48   43   44 1   
    49   43   45 1   
    50   50   51 1   
    51   50   54 1   
    52   51   52 1   
    53   51   55 1   
    54   51   56 1   
    55   52   53 2   
    56   52   57 1   
    57   57   58 1   
    58   57   65 1   
    59   58   59 1   
    60   58   61 1   
    61   58   66 1   
    62   59   60 2   
    63   59   69 1   
    64   61   62 1   
    65   61   67 1   
    66   61   68 1   
    67   62   63 1   
    68   62   64 1   
    69   69   70 1   
    70   69   73 1   
    71   70   71 1   
    72   70   74 1   
    73   70   75 1   
    74   71   72 2   
    75   71   76 1   
    76   76   77 1   
    77   76   85 1   
    78   77   78 1   
    79   77   80 1   
    80   77   86 1   
    81   78   79 2   
    82   78   93 1   
    83   80   81 1   
    84   80   87 1   
    85   80   88 1   
    86   81   82 1   
    87   81   89 1   
    88   81   90 1   
    89   82   83 1   
    90   82   84 2   
    91   83   91 1   
    92   83   92 1   
    93   93   94 1   
    94   93  100 1   
    95   94   95 1   
    96   94   97 1   
    97   94  101 1   
    98   95   96 2   
    99   95  109 1   
   100   97   98 1   
   101   97   99 1   
   102   97  102 1   
   103   98  103 1   
   104   98  104 1   
   105   98  105 1   
   106   99  106 1   
   107   99  107 1   
   108   99  108 1   
   109  109  110 1   
   110  109  117 1   
   111  110  111 1   
   112  110  113 1   
   113  110  118 1   
   114  111  112 2   
   115  111  123 1   
   116  113  114 1   
   117  113  119 1   
   118  113  120 1   
   119  114  115 1   
   120  114  116 2   
   121  115  121 1   
   122  115  122 1   
   123  123  124 1   
   124  123  135 1   
   125  124  125 1   
   126  124  127 1   
   127  124  136 1   
   128  125  126 2   
   129  125  144 1   
   130  127  128 1   
   131  127  137 1   
   132  127  138 1   
   133  128  129 ar  
   134  128  130 ar  
   135  129  131 ar  
   136  129  139 1   
   137  130  132 ar  
   138  130  140 1   
   139  131  133 ar  
   140  131  141 1   
   141  132  133 ar  
   142  132  142 1   
   143  133  134 1   
   144  134  143 1   
   145  144  145 1   
   146  144  153 1   
   147  145  146 1   
   148  145  148 1   
   149  145  154 1   
   150  146  147 2   
   151  146  159 1   
   152  148  149 1   
   153  148  155 1   
   154  148  156 1   
   155  149  150 1   
   156  149  157 1   
   157  149  158 1   
   158  150  151 1   
   159  150  152 1   
   160  159  160 1   
   161  159  168 1   
   162  160  161 1   
   163  160  163 1   
   164  160  169 1   
   165  161  162 2   
   166  161  174 1   
   167  163  164 1   
   168  163  170 1   
   169  163  171 1   
   170  164  165 1   
   171  164  172 1   
   172  164  173 1   
   173  165  166 1   
   174  165  167 1   
   175  174  175 1   
   176  174  179 1   
   177  175  176 1   
   178  175  177 1   
   179  175  178 1   
   180  181  182 1   
   181  181  183 1   
@<TRIPOS>SUBSTRUCTURE
     1 MOL         1 TEMP              0 ****  ****    0 ROOT
