@<TRIPOS>MOLECULE
MOL
  189   185     1     0     0
SMALL
resp


@<TRIPOS>ATOM
      1 C1         -0.0120   -3.2770    6.3590 c3        1 MOL     -0.388370
      2 C2          0.5850   -2.9440    4.9910 c         1 MOL      0.735791
      3 O1          0.7290   -1.7320    4.6530 o         1 MOL     -0.619966
      4 H1         -0.9150   -2.6870    6.5140 hc        1 MOL      0.101691
      5 H2         -0.2610   -4.3370    6.4000 hc        1 MOL      0.101691
      6 H3          0.7130   -3.0430    7.1390 hc        1 MOL      0.101691
      7 N1          1.0120   -3.9160    4.1590 n         1 MOL     -0.570729
      8 C3          1.7580   -3.6420    2.9140 c3        1 MOL      0.376549
      9 C4          1.6600   -4.8580    1.9350 c         1 MOL      0.459331
     10 O2          1.7440   -6.0210    2.3910 o         1 MOL     -0.598820
     11 C5          3.1950   -3.4250    3.1730 c3        1 MOL     -0.499248
     12 C6          4.1070   -3.0060    1.9310 c         1 MOL      0.928344
     13 O3          5.3350   -3.0330    2.1230 o         1 MOL     -0.702877
     14 O4          3.5160   -2.6450    0.8460 o         1 MOL     -0.702877
     15 H4          0.8220   -4.8980    4.2880 hn        1 MOL      0.290582
     16 H5          1.4070   -2.7750    2.3670 h1        1 MOL      0.000763
     17 H6          3.5520   -4.4020    3.4980 hc        1 MOL      0.093308
     18 H7          3.3490   -2.7380    4.0090 hc        1 MOL      0.093308
     19 N2          1.5450   -4.5910    0.6470 n         1 MOL     -0.074346
     20 C7          1.3090   -5.5040   -0.5050 c3        1 MOL     -0.123396
     21 C8          2.3510   -5.2310   -1.6630 c         1 MOL      0.603305
     22 O5          2.5320   -6.0500   -2.5510 o         1 MOL     -0.594668
     23 C9         -0.1440   -5.2670   -1.0380 c3        1 MOL      0.266460
     24 C10        -1.2570   -5.5420    0.0260 c3        1 MOL     -0.041551
     25 C11        -0.4920   -6.2970   -2.1520 c3        1 MOL     -0.470663
     26 C12        -2.6790   -4.9530   -0.3360 c3        1 MOL     -0.008128
     27 H8          1.3700   -3.6320    0.3860 hn        1 MOL     -0.233670
     28 H9          1.3660   -6.5730   -0.3030 h1        1 MOL      0.074215
     29 H10        -0.1210   -4.2320   -1.3720 hc        1 MOL      0.055783
     30 H11        -1.0580   -5.2170    1.0470 hc        1 MOL      0.002783
     31 H12        -1.3540   -6.6180    0.1680 hc        1 MOL      0.002783
     32 H13        -1.5580   -6.2050   -2.3500 hc        1 MOL      0.110457
     33 H14         0.0570   -6.0420   -3.0630 hc        1 MOL      0.110457
     34 H15        -0.4520   -7.3400   -1.8690 hc        1 MOL      0.110457
     35 H16        -3.2430   -4.6960    0.5630 hc        1 MOL     -0.000031
     36 H17        -2.5820   -4.0850   -0.9810 hc        1 MOL     -0.000031
     37 H18        -3.1580   -5.7400   -0.9160 hc        1 MOL     -0.000031
     38 N3          3.0650   -4.0870   -1.6990 n         1 MOL     -0.413847
     39 C13         4.0000   -3.6800   -2.7880 c3        1 MOL      0.072255
     40 C14         5.3320   -3.1240   -2.3590 c         1 MOL      0.348743
     41 O6          6.1720   -2.8120   -3.2090 o         1 MOL     -0.540890
     42 C15         3.3150   -2.7160   -3.6710 c3        1 MOL     -0.137409
     43 C16         3.0520   -1.3000   -3.1230 c         1 MOL      0.825921
     44 O7          3.5880   -0.9470   -2.1140 o         1 MOL     -0.753297
     45 O8          2.1560   -0.6530   -3.6570 o         1 MOL     -0.753297
     46 H19         2.8400   -3.3700   -1.0210 hn        1 MOL      0.310491
     47 H20         4.2370   -4.5150   -3.4580 h1        1 MOL      0.095600
     48 H21         2.3790   -3.2000   -3.9660 hc        1 MOL      0.026208
     49 H22         3.8590   -2.5860   -4.6020 hc        1 MOL      0.026208
     50 N4          5.7030   -3.0230   -1.0460 n         1 MOL     -0.121224
     51 C17         7.0450   -2.7740   -0.5370 c3        1 MOL     -0.255551
     52 C18         7.6210   -1.3570   -0.8110 c         1 MOL      0.590179
     53 O9          8.7460   -1.1070   -0.6240 o         1 MOL     -0.602652
     54 H23         4.9260   -3.2450   -0.4330 hn        1 MOL      0.077670
     55 H24         7.7800   -3.4040   -1.0260 h1        1 MOL      0.115147
     56 H25         7.1210   -2.9270    0.5410 h1        1 MOL      0.115147
     57 N5          6.7530   -0.4060   -1.3310 n         1 MOL     -0.179227
     58 C19         7.2190    0.9550   -1.6970 c3        1 MOL     -0.107846
     59 C20         7.5210    2.1260   -0.6260 c         1 MOL      0.398651
     60 O10         7.9440    3.2200   -1.0230 o         1 MOL     -0.504098
     61 C21         6.2620    1.5440   -2.8120 c3        1 MOL     -0.329830
     62 C22         4.8150    1.8070   -2.2350 c         1 MOL      0.883597
     63 O11         4.5460    1.4480   -1.0780 o         1 MOL     -0.725688
     64 O12         4.0140    2.4520   -2.9540 o         1 MOL     -0.725688
     65 H26         5.7860   -0.6110   -1.5380 hn        1 MOL      0.148266
     66 H27         8.1220    0.8610   -2.3020 h1        1 MOL      0.110641
     67 H28         6.1940    0.7230   -3.5300 hc        1 MOL      0.092777
     68 H29         6.6310    2.4430   -3.3060 hc        1 MOL      0.092777
     69 N6          7.2170    1.8790    0.6430 n         1 MOL     -0.218685
     70 C23         7.1640    2.9230    1.6610 c3        1 MOL     -0.210338
     71 C24         5.9240    3.9470    1.5970 c         1 MOL      0.543205
     72 O13         6.1030    5.0290    2.0920 o         1 MOL     -0.572479
     73 H30         6.8220    0.9810    0.9020 hn        1 MOL      0.216023
     74 H31         8.1020    3.4790    1.6740 h1        1 MOL      0.090105
     75 H32         6.9510    2.3790    2.5760 h1        1 MOL      0.090105
     76 N7          4.8600    3.5180    0.9780 n         1 MOL     -0.198557
     77 C25         3.5580    4.2160    1.0420 c3        1 MOL     -0.135839
     78 C26         2.3310    3.3580    1.2930 c         1 MOL      0.409157
     79 O14         2.4650    2.1240    1.1510 o         1 MOL     -0.448635
     80 C27         3.4100    5.1010   -0.2220 c3        1 MOL      0.044416
     81 C28         4.4230    6.2400   -0.2620 c3        1 MOL     -0.261808
     82 C29         3.9930    7.2340   -1.3680 c         1 MOL      0.614320
     83 N8          4.1690    6.9400   -2.6500 n         1 MOL     -0.745444
     84 O15         3.5660    8.3570   -1.0990 o         1 MOL     -0.587334
     85 H33         4.8320    2.6310    0.4940 hn        1 MOL      0.202034
     86 H34         3.5720    4.9630    1.8410 h1        1 MOL      0.075703
     87 H35         2.4130    5.5270   -0.3250 hc        1 MOL      0.041548
     88 H36         3.5060    4.4710   -1.1130 hc        1 MOL      0.041548
     89 H37         5.3990    5.8560   -0.5520 hc        1 MOL      0.105815
     90 H38         4.4630    6.7320    0.7030 hc        1 MOL      0.105815
     91 H39         4.5420    6.0580   -2.9540 hn        1 MOL      0.346647
     92 H40         4.2380    7.7460   -3.2660 hn        1 MOL      0.346647
     93 N9          1.2020    3.9830    1.7120 n         1 MOL     -0.386800
     94 C30        -0.1160    3.3170    1.8190 c3        1 MOL     -0.071407
     95 C31        -1.0720    3.7070    0.6710 c         1 MOL      0.543491
     96 O16        -1.5880    4.8650    0.6740 o         1 MOL     -0.565264
     97 C32        -0.8020    3.5950    3.1980 c3        1 MOL      0.341505
     98 C33        -2.2640    2.9720    3.1200 c3        1 MOL     -0.304918
     99 C34        -0.0010    2.9200    4.3450 c3        1 MOL     -0.304918
    100 H41         1.3460    4.9770    1.7960 hn        1 MOL      0.268462
    101 H42         0.1010    2.2520    1.7320 h1        1 MOL      0.135699
    102 H43        -0.8890    4.6450    3.4730 hc        1 MOL     -0.044422
    103 H44        -2.1510    2.1740    2.3770 hc        1 MOL      0.057444
    104 H45        -2.5960    2.7800    4.1350 hc        1 MOL      0.057444
    105 H46        -2.9300    3.6520    2.5880 hc        1 MOL      0.057444
    106 H47        -0.6560    2.2100    4.8430 hc        1 MOL      0.057444
    107 H48         0.8000    2.3900    3.8330 hc        1 MOL      0.057444
    108 H49         0.4470    3.6810    4.9760 hc        1 MOL      0.057444
    109 N10        -1.2360    2.7110   -0.2550 n         1 MOL     -0.396608
    110 C35        -2.3630    2.7170   -1.2320 c3        1 MOL      0.093568
    111 C36        -3.7160    2.2400   -0.5350 c         1 MOL      0.189581
    112 O17        -3.7820    1.5710    0.4860 o         1 MOL     -0.144796
    113 C37        -1.8770    1.7720   -2.3720 c3        1 MOL     -0.289596
    114 C38        -2.8730    1.5950   -3.5210 c         1 MOL      0.756215
    115 N11        -3.2540    2.5820   -4.2800 n         1 MOL     -0.820404
    116 O18        -3.3990    0.5600   -3.6120 o         1 MOL     -0.549952
    117 H50        -0.8310    1.8110   -0.0740 hn        1 MOL      0.256269
    118 H51        -2.5580    3.7310   -1.5820 h1        1 MOL      0.056489
    119 H52        -1.6840    0.8350   -1.8560 hc        1 MOL      0.122328
    120 H53        -0.9820    2.1950   -2.8130 hc        1 MOL      0.122328
    121 H54        -2.9600    3.5220   -4.0610 hn        1 MOL      0.360634
    122 H55        -3.9780    2.3580   -4.9530 hn        1 MOL      0.360634
    123 N12        -4.8750    2.5170   -1.1250 n         1 MOL     -0.277438
    124 C39        -6.1430    2.2090   -0.4510 c3        1 MOL      0.064425
    125 C40        -6.4350    0.6390   -0.3380 c         1 MOL      0.830283
    126 O19        -7.1220    0.2710    0.6560 o         1 MOL     -0.579579
    127 C41        -7.1840    2.8820   -1.3420 c3        1 MOL     -0.176509
    128 C42        -8.6050    2.7270   -0.8650 ca        1 MOL      0.183991
    129 C43        -9.1030    3.3260    0.3660 ca        1 MOL     -0.408706
    130 C44        -9.4410    1.8290   -1.5600 ca        1 MOL     -0.408706
    131 C45       -10.3520    2.9070    0.9110 ca        1 MOL     -0.013403
    132 C46       -10.6690    1.4980   -1.0550 ca        1 MOL     -0.013403
    133 C47       -11.1460    2.0210    0.1800 ca        1 MOL      0.154447
    134 O20       -12.3890    1.7120    0.6750 oh        1 MOL     -0.501818
    135 H56        -4.9250    3.0540   -1.9760 hn        1 MOL      0.182807
    136 H57        -6.1590    2.6490    0.5450 h1        1 MOL      0.058021
    137 H58        -7.1120    2.4300   -2.3320 hc        1 MOL      0.061888
    138 H59        -7.0140    3.9540   -1.3490 hc        1 MOL      0.061888
    139 H60        -8.4930    4.0080    0.9410 ha        1 MOL      0.199656
    140 H61        -9.2300    1.3780   -2.5190 ha        1 MOL      0.199656
    141 H62       -10.8240    3.3870    1.7530 ha        1 MOL      0.090529
    142 H63       -11.3490    0.8930   -1.6360 ha        1 MOL      0.090529
    143 H64       -12.8630    1.2040    0.0110 ho        1 MOL      0.373479
    144 N13        -5.8400   -0.2220   -1.1890 n         1 MOL     -0.588230
    145 C48        -5.8920   -1.7500   -0.9290 c3        1 MOL     -0.012715
    146 C49        -5.1600   -2.1240    0.3500 c         1 MOL      0.350311
    147 O21        -5.5400   -3.1890    0.8820 o         1 MOL     -0.506395
    148 C50        -5.1390   -2.2840   -2.1270 c3        1 MOL      0.080034
    149 C51        -5.7850   -2.0650   -3.5510 c3        1 MOL     -0.179431
    150 C52        -7.1740   -2.7300   -3.6720 c         1 MOL      0.752012
    151 O22        -7.8740   -2.3240   -4.5760 o         1 MOL     -0.747546
    152 O23        -7.4690   -3.6720   -2.9070 o         1 MOL     -0.747546
    153 H65        -5.2700    0.1610   -1.9170 hn        1 MOL      0.267807
    154 H66        -6.8970   -2.1660   -0.9770 h1        1 MOL      0.135021
    155 H67        -5.1140   -3.3470   -1.9430 hc        1 MOL      0.005022
    156 H68        -4.0960   -1.9880   -2.1950 hc        1 MOL      0.005022
    157 H69        -5.1280   -2.4830   -4.3200 hc        1 MOL      0.011658
    158 H70        -5.9240   -1.0100   -3.7790 hc        1 MOL      0.011658
    159 N14        -4.3060   -1.2460    0.9760 n         1 MOL     -0.094672
    160 C53        -3.6030   -1.5460    2.2200 c3        1 MOL     -0.013062
    161 C54        -4.1710   -0.7170    3.3750 c         1 MOL      0.462968
    162 O24        -4.3010   -1.2150    4.4800 o         1 MOL     -0.573103
    163 C55        -2.1080   -1.3010    2.0390 c3        1 MOL      0.151273
    164 C56        -1.4580   -1.9730    0.7800 c3        1 MOL     -0.149144
    165 C57        -0.0770   -1.2940    0.4500 c         1 MOL      0.649526
    166 O25         0.7830   -1.9460   -0.1540 o         1 MOL     -0.625392
    167 O26         0.1860   -0.1050    0.6930 o         1 MOL     -0.625392
    168 H71        -4.0190   -0.3940    0.5260 hn        1 MOL      0.091549
    169 H72        -3.7000   -2.5700    2.6110 h1        1 MOL      0.066472
    170 H73        -1.6380   -1.7320    2.9210 hc        1 MOL     -0.052270
    171 H74        -1.9740   -0.2250    2.0370 hc        1 MOL     -0.052270
    172 H75        -2.0520   -1.7630   -0.1100 hc        1 MOL      0.055942
    173 H76        -1.2880   -3.0360    0.9260 hc        1 MOL      0.055942
    174 N15        -4.6700    0.4970    3.1180 n         1 MOL     -0.058883
    175 C58        -5.2670    1.3830    4.1990 c3        1 MOL     -0.150520
    176 H77        -5.9840    2.0700    3.7500 h1        1 MOL      0.071648
    177 H78        -5.7730    0.7620    4.9390 h1        1 MOL      0.071648
    178 H79        -4.4730    1.9510    4.6830 h1        1 MOL      0.071648
    179 H80        -4.7470    0.7130    2.1350 hn        1 MOL     -0.068863
    180 Ca1         2.8350   -0.2310    0.1610 Ca        1 MOL      1.786178
    181 O27         2.0660   -0.5150    2.7770 oh        1 MOL     -0.981933
    182 H81         1.3540   -0.8970    3.2860 ho        1 MOL      0.454838
    183 H82         2.3060    0.2750    3.2680 ho        1 MOL      0.454838
    184 O28         1.7490    1.3320   -1.8230 oh        1 MOL     -0.981933
    185 H83         2.5530    1.8300   -1.9490 ho        1 MOL      0.454838
    186 H84         1.5440    0.9830   -2.6920 ho        1 MOL      0.454838
    187 O29         4.8340    0.1690    2.0550 oh        1 MOL     -0.981933
    188 H85         4.5970    0.5210    2.9200 ho        1 MOL      0.454838
    189 H86         5.7210   -0.1660    2.1620 ho        1 MOL      0.454838
@<TRIPOS>BOND
     1    1    2 1   
     2    1    4 1   
     3    1    5 1   
     4    1    6 1   
     5    2    3 2   
     6    2    7 1   
     7    7    8 1   
     8    7   15 1   
     9    8    9 1   
    10    8   11 1   
    11    8   16 1   
    12    9   10 2   
    13    9   19 1   
    14   11   12 1   
    15   11   17 1   
    16   11   18 1   
    17   12   13 1   
    18   12   14 1   
    19   19   20 1   
    20   19   27 1   
    21   20   21 1   
    22   20   23 1   
    23   20   28 1   
    24   21   22 2   
    25   21   38 1   
    26   23   24 1   
    27   23   25 1   
    28   23   29 1   
    29   24   26 1   
    30   24   30 1   
    31   24   31 1   
    32   25   32 1   
    33   25   33 1   
    34   25   34 1   
    35   26   35 1   
    36   26   36 1   
    37   26   37 1   
    38   38   39 1   
    39   38   46 1   
    40   39   40 1   
    41   39   42 1   
    42   39   47 1   
    43   40   41 2   
    44   40   50 1   
    45   42   43 1   
    46   42   48 1   
    47   42   49 1   
    48   43   44 1   
    49   43   45 1   
    50   50   51 1   
    51   50   54 1   
    52   51   52 1   
    53   51   55 1   
    54   51   56 1   
    55   52   53 2   
    56   52   57 1   
    57   57   58 1   
    58   57   65 1   
    59   58   59 1   
    60   58   61 1   
    61   58   66 1   
    62   59   60 2   
    63   59   69 1   
    64   61   62 1   
    65   61   67 1   
    66   61   68 1   
    67   62   63 1   
    68   62   64 1   
    69   69   70 1   
    70   69   73 1   
    71   70   71 1   
    72   70   74 1   
    73   70   75 1   
    74   71   72 2   
    75   71   76 1   
    76   76   77 1   
    77   76   85 1   
    78   77   78 1   
    79   77   80 1   
    80   77   86 1   
    81   78   79 2   
    82   78   93 1   
    83   80   81 1   
    84   80   87 1   
    85   80   88 1   
    86   81   82 1   
    87   81   89 1   
    88   81   90 1   
    89   82   83 1   
    90   82   84 2   
    91   83   91 1   
    92   83   92 1   
    93   93   94 1   
    94   93  100 1   
    95   94   95 1   
    96   94   97 1   
    97   94  101 1   
    98   95   96 2   
    99   95  109 1   
   100   97   98 1   
   101   97   99 1   
   102   97  102 1   
   103   98  103 1   
   104   98  104 1   
   105   98  105 1   
   106   99  106 1   
   107   99  107 1   
   108   99  108 1   
   109  109  110 1   
   110  109  117 1   
   111  110  111 1   
   112  110  113 1   
   113  110  118 1   
   114  111  112 2   
   115  111  123 1   
   116  113  114 1   
   117  113  119 1   
   118  113  120 1   
   119  114  115 1   
   120  114  116 2   
   121  115  121 1   
   122  115  122 1   
   123  123  124 1   
   124  123  135 1   
   125  124  125 1   
   126  124  127 1   
   127  124  136 1   
   128  125  126 2   
   129  125  144 1   
   130  127  128 1   
   131  127  137 1   
   132  127  138 1   
   133  128  129 ar  
   134  128  130 ar  
   135  129  131 ar  
   136  129  139 1   
   137  130  132 ar  
   138  130  140 1   
   139  131  133 ar  
   140  131  141 1   
   141  132  133 ar  
   142  132  142 1   
   143  133  134 1   
   144  134  143 1   
   145  144  145 1   
   146  144  153 1   
   147  145  146 1   
   148  145  148 1   
   149  145  154 1   
   150  146  147 2   
   151  146  159 1   
   152  148  149 1   
   153  148  155 1   
   154  148  156 1   
   155  149  150 1   
   156  149  157 1   
   157  149  158 1   
   158  150  151 1   
   159  150  152 1   
   160  159  160 1   
   161  159  168 1   
   162  160  161 1   
   163  160  163 1   
   164  160  169 1   
   165  161  162 2   
   166  161  174 1   
   167  163  164 1   
   168  163  170 1   
   169  163  171 1   
   170  164  165 1   
   171  164  172 1   
   172  164  173 1   
   173  165  166 1   
   174  165  167 1   
   175  174  175 1   
   176  174  179 1   
   177  175  176 1   
   178  175  177 1   
   179  175  178 1   
   180  181  182 1   
   181  181  183 1   
   182  184  185 1   
   183  184  186 1   
   184  187  188 1   
   185  187  189 1   
@<TRIPOS>SUBSTRUCTURE
     1 MOL         1 TEMP              0 ****  ****    0 ROOT
