@<TRIPOS>MOLECULE
MOL
  179   176     1     0     0
SMALL
resp


@<TRIPOS>ATOM
      1 C1          1.8610    3.5610    4.6120 c3        1 MOL     -0.369333
      2 C2          1.0560    3.2530    3.3660 c         1 MOL      0.617887
      3 O1          1.5830    3.0240    2.2610 o         1 MOL     -0.571195
      4 H1          2.7690    2.9590    4.6160 hc        1 MOL      0.101569
      5 H2          2.1260    4.6180    4.6220 hc        1 MOL      0.101569
      6 H3          1.2670    3.3270    5.4960 hc        1 MOL      0.101569
      7 N1         -0.2580    3.3440    3.4510 n         1 MOL     -0.570719
      8 C3         -1.2050    2.9130    2.3690 c3        1 MOL     -0.027848
      9 C4         -2.0790    4.0460    1.7600 c         1 MOL      0.620058
     10 O2         -3.2210    4.3300    2.1710 o         1 MOL     -0.481616
     11 C5         -2.1240    1.7590    2.7700 c3        1 MOL      0.004597
     12 C6         -2.8350    1.2160    1.5570 c         1 MOL      0.767363
     13 O3         -4.0030    0.7610    1.8370 o         1 MOL     -0.775685
     14 O4         -2.3200    1.1660    0.4110 o         1 MOL     -0.775685
     15 H4         -0.6670    3.5890    4.3420 hn        1 MOL      0.333548
     16 H5         -0.5630    2.5540    1.5670 h1        1 MOL      0.044065
     17 H6         -2.8970    2.0670    3.4660 hc        1 MOL      0.008590
     18 H7         -1.5010    0.9370    3.1400 hc        1 MOL      0.008590
     19 N2         -1.4090    4.9290    0.9550 n         1 MOL     -0.559098
     20 C7         -1.9210    6.1720    0.4050 c3        1 MOL      0.019772
     21 C8         -3.0520    6.0440   -0.6430 c         1 MOL      0.366925
     22 O5         -4.0480    6.8220   -0.6840 o         1 MOL     -0.516315
     23 C9         -0.7570    6.9100   -0.2960 c3        1 MOL     -0.140203
     24 C10         0.4150    7.1990    0.6360 c3        1 MOL      0.041639
     25 C11         1.5350    8.0090   -0.0480 c3        1 MOL      0.089875
     26 C12         2.6970    8.3480    0.8670 c3        1 MOL      0.024762
     27 N3          3.2740    7.0950    1.5130 n4        1 MOL     -0.440548
     28 H8         -0.4540    4.6480    0.7790 hn        1 MOL      0.382381
     29 H9         -2.2420    6.7610    1.2720 h1        1 MOL      0.106696
     30 H10        -1.1790    7.8400   -0.6830 hc        1 MOL      0.066274
     31 H11        -0.4330    6.3740   -1.1880 hc        1 MOL      0.066274
     32 H12         0.7860    6.2520    1.0280 hc        1 MOL     -0.011359
     33 H13         0.1490    7.8190    1.4940 hc        1 MOL     -0.011359
     34 H14         1.2000    8.9320   -0.5300 hc        1 MOL      0.020495
     35 H15         1.9260    7.4380   -0.8920 hc        1 MOL      0.020495
     36 H16         2.4600    9.0020    1.7060 hx        1 MOL      0.073354
     37 H17         3.4460    8.8980    0.2960 hx        1 MOL      0.073354
     38 H18         3.4220    6.3460    0.8530 hn        1 MOL      0.355862
     39 H19         4.2100    7.3920    1.7390 hn        1 MOL      0.355862
     40 H20         2.7830    6.9340    2.3820 hn        1 MOL      0.355862
     41 N4         -2.9530    4.8920   -1.3140 n         1 MOL     -0.146097
     42 C13        -3.9650    4.4750   -2.3140 c3        1 MOL     -0.014941
     43 C14        -5.2400    3.6720   -1.7720 c         1 MOL      0.395566
     44 O6         -6.1070    3.3090   -2.5520 o         1 MOL     -0.505010
     45 C15        -3.4160    3.6950   -3.5500 c3        1 MOL     -0.359067
     46 C16        -2.6570    2.5010   -3.0910 c         1 MOL      0.835245
     47 O7         -1.4470    2.5740   -2.8850 o         1 MOL     -0.757142
     48 O8         -3.2910    1.5110   -2.7760 o         1 MOL     -0.757142
     49 H21        -2.1610    4.2830   -1.1450 hn        1 MOL      0.166357
     50 H22        -4.4270    5.3460   -2.7890 h1        1 MOL      0.112273
     51 H23        -2.7890    4.3620   -4.1460 hc        1 MOL      0.098514
     52 H24        -4.2390    3.2720   -4.1290 hc        1 MOL      0.098514
     53 N5         -5.2010    3.2970   -0.4570 n         1 MOL     -0.071998
     54 C17        -6.3830    2.9360    0.3130 c3        1 MOL     -0.301007
     55 C18        -6.7020    1.4160   -0.0470 c         1 MOL      0.580189
     56 O9         -7.5960    0.9470    0.6340 o         1 MOL     -0.596110
     57 H25        -4.3570    3.3840    0.0770 hn        1 MOL      0.138258
     58 H26        -7.2870    3.4610   -0.0000 h1        1 MOL      0.146893
     59 H27        -6.2270    3.0050    1.3880 h1        1 MOL      0.146893
     60 N6         -5.9620    0.6510   -0.8220 n         1 MOL     -0.331362
     61 C19        -6.3960   -0.7670   -1.2440 c3        1 MOL      0.049013
     62 C20        -6.4570   -1.7420   -0.1510 c         1 MOL      0.343430
     63 O10        -6.9740   -2.8310   -0.4400 o         1 MOL     -0.481865
     64 C21        -5.6440   -1.2040   -2.5030 c3        1 MOL     -0.355498
     65 C22        -4.2570   -1.7900   -2.1580 c         1 MOL      0.492381
     66 N7         -3.8030   -2.7950   -2.8160 n         1 MOL     -0.546257
     67 O11        -3.5680   -1.4000   -1.2800 o         1 MOL     -0.590731
     68 H28        -5.1470    1.0590   -1.2510 hn        1 MOL      0.258928
     69 H29        -7.4560   -0.7170   -1.5240 h1        1 MOL      0.099751
     70 H30        -5.6170   -0.4880   -3.3290 hc        1 MOL      0.147341
     71 H31        -6.1980   -2.0900   -2.8060 hc        1 MOL      0.147341
     72 H32        -4.2260   -3.2760   -3.5980 hn        1 MOL      0.301330
     73 H33        -2.8670   -3.1060   -2.5810 hn        1 MOL      0.301330
     74 N8         -5.8710   -1.4950    1.0260 n         1 MOL     -0.122198
     75 C23        -5.7270   -2.3670    2.1620 c3        1 MOL     -0.348010
     76 C24        -4.3840   -3.0070    2.3590 c         1 MOL      0.748407
     77 O12        -4.1330   -3.6060    3.3860 o         1 MOL     -0.627990
     78 H34        -5.2410   -0.7070    1.0520 hn        1 MOL      0.341088
     79 H35        -6.3540   -3.2600    2.1310 h1        1 MOL      0.140371
     80 H36        -5.9730   -1.8820    3.1090 h1        1 MOL      0.140371
     81 N9         -3.4690   -2.8190    1.4180 n         1 MOL     -0.551593
     82 C25        -2.2670   -3.6280    1.1720 c3        1 MOL      0.273815
     83 C26        -1.0110   -2.7000    1.0880 c         1 MOL      0.528917
     84 O13        -1.1390   -1.6790    0.4620 o         1 MOL     -0.657816
     85 C27        -2.3020   -4.5820    0.0290 c3        1 MOL      0.045886
     86 C28        -3.4460   -5.6280   -0.0000 ca        1 MOL     -0.019721
     87 C29        -4.7470   -5.3070   -0.4830 ca        1 MOL     -0.196596
     88 C30        -3.2120   -6.8850    0.6660 ca        1 MOL     -0.196596
     89 C31        -5.8550   -6.1170   -0.1830 ca        1 MOL     -0.229823
     90 C32        -4.3410   -7.7020    0.9030 ca        1 MOL     -0.229823
     91 C33        -5.6400   -7.3480    0.4790 ca        1 MOL      0.351291
     92 O14        -6.6170   -8.2670    0.6600 oh        1 MOL     -0.459893
     93 H37        -3.6310   -2.2430    0.6100 hn        1 MOL      0.372632
     94 H38        -2.1310   -4.3110    2.0090 h1        1 MOL     -0.007810
     95 H39        -1.3330   -5.0710   -0.0640 hc        1 MOL     -0.017174
     96 H40        -2.3220   -3.9550   -0.8590 hc        1 MOL     -0.017174
     97 H41        -4.8520   -4.3750   -1.0090 ha        1 MOL      0.136376
     98 H42        -2.2070   -7.0920    0.9880 ha        1 MOL      0.136376
     99 H43        -6.8410   -5.8870   -0.5600 ha        1 MOL      0.138901
    100 H44        -4.2240   -8.6570    1.3960 ha        1 MOL      0.138901
    101 H45        -6.2310   -9.0040    1.1350 ho        1 MOL      0.327291
    102 N10         0.0980   -3.1130    1.6080 n         1 MOL     -0.451936
    103 C34         1.3950   -2.4720    1.2520 c3        1 MOL      0.045072
    104 C35         2.4720   -3.5940    0.8400 c         1 MOL      0.486443
    105 O15         2.3500   -4.7710    1.0100 o         1 MOL     -0.527974
    106 C36         1.9380   -1.6570    2.4690 c3        1 MOL     -0.077374
    107 C37         2.4520   -2.4640    3.6680 c3        1 MOL     -0.126390
    108 C38         0.8350   -0.6280    2.9830 c3        1 MOL     -0.105993
    109 C39         3.0020   -1.8290    4.9580 c3        1 MOL     -0.081983
    110 H46         0.0770   -3.9420    2.1890 hn        1 MOL      0.278072
    111 H47         1.3320   -1.7840    0.4090 h1        1 MOL      0.149848
    112 H48         2.8150   -1.0710    2.2040 hc        1 MOL      0.025847
    113 H49         3.3360   -2.9790    3.2600 hc        1 MOL      0.063625
    114 H50         1.7880   -3.2630    3.9850 hc        1 MOL      0.063625
    115 H51         1.2390   -0.1120    3.8590 hc        1 MOL      0.069023
    116 H52         0.5700    0.1200    2.2320 hc        1 MOL      0.069023
    117 H53        -0.0520   -1.1700    3.3200 hc        1 MOL      0.069023
    118 H54         3.8890   -1.2760    4.6400 hc        1 MOL      0.026970
    119 H55         2.3670   -1.1480    5.5200 hc        1 MOL      0.026970
    120 H56         3.3690   -2.6340    5.5990 hc        1 MOL      0.026970
    121 N11         3.6150   -3.0950    0.3290 n         1 MOL     -0.237270
    122 C40         4.6970   -3.8020   -0.4150 c3        1 MOL      0.056094
    123 C41         6.0070   -3.1180   -0.0890 c         1 MOL      0.421591
    124 O16         5.9890   -2.0970    0.6050 o         1 MOL     -0.419794
    125 C42         4.4320   -3.6020   -1.9060 c3        1 MOL     -0.386297
    126 O17         4.5890   -2.2490   -2.3530 oh        1 MOL     -0.448186
    127 H57         3.5760   -2.0990    0.1880 hn        1 MOL      0.165909
    128 H58         4.7770   -4.8300   -0.0390 h1        1 MOL      0.101273
    129 H59         3.4110   -3.9160   -2.0830 h1        1 MOL      0.175192
    130 H60         5.0740   -4.2290   -2.5240 h1        1 MOL      0.175192
    131 H61         4.2100   -2.2070   -3.2370 ho        1 MOL      0.407304
    132 N12         7.1390   -3.6470   -0.6060 n         1 MOL     -0.368205
    133 C43         8.4580   -3.1960   -0.2140 c3        1 MOL      0.085545
    134 C44         8.7210   -1.8110   -0.8050 c         1 MOL      0.438614
    135 O18         9.2950   -1.0030   -0.1060 o         1 MOL     -0.511039
    136 C45         9.4440   -4.2200   -0.7980 c3        1 MOL     -0.359038
    137 H62         7.0540   -4.4590   -1.1970 hn        1 MOL      0.258118
    138 H63         8.4480   -3.1460    0.8790 h1        1 MOL      0.117090
    139 H64         9.2240   -5.1790   -0.3160 hc        1 MOL      0.113044
    140 H65         9.4290   -4.2720   -1.8890 hc        1 MOL      0.113044
    141 H66        10.4710   -4.0740   -0.4510 hc        1 MOL      0.113044
    142 N13         8.2880   -1.5210   -2.0430 n         1 MOL     -0.313328
    143 C46         8.3770   -0.1590   -2.5640 c3        1 MOL      0.100120
    144 C47         7.3920    0.8200   -1.7450 c         1 MOL      0.349983
    145 O19         7.7280    1.9950   -1.6400 o         1 MOL     -0.519489
    146 C48         8.2150   -0.2390   -4.0940 c3        1 MOL     -0.199724
    147 H67         8.0400   -2.3230   -2.6130 hn        1 MOL      0.249909
    148 H68         9.3980    0.1580   -2.3320 h1        1 MOL      0.089246
    149 H69         8.0960    0.7570   -4.5320 hc        1 MOL      0.057304
    150 H70         9.0300   -0.8470   -4.4930 hc        1 MOL      0.057304
    151 H71         7.2720   -0.7720   -4.2140 hc        1 MOL      0.057304
    152 N14         6.2990    0.4010   -1.1450 n         1 MOL      0.081618
    153 C49         5.4220    1.2940   -0.4260 c3        1 MOL     -0.228628
    154 C50         6.0200    1.5310    0.9900 c         1 MOL      0.462198
    155 O20         6.0500    2.6550    1.4980 o         1 MOL     -0.577230
    156 C51         3.9520    0.7740   -0.2940 c3        1 MOL      0.120726
    157 C52         3.2730    0.7130   -1.6460 c3        1 MOL      0.140351
    158 C53         1.7720    0.3590   -1.4820 c         1 MOL      0.674237
    159 O21         1.3270   -0.7010   -1.9280 o         1 MOL     -0.760764
    160 O22         0.9510    1.2050   -0.9950 o         1 MOL     -0.760764
    161 H72         6.0090   -0.5690   -1.2430 hn        1 MOL     -0.001649
    162 H73         5.3460    2.2630   -0.9180 h1        1 MOL      0.125593
    163 H74         3.3830    1.4430    0.3640 hc        1 MOL      0.004381
    164 H75         3.9820   -0.2420    0.0920 hc        1 MOL      0.004381
    165 H76         3.8300    0.0400   -2.2970 hc        1 MOL     -0.067068
    166 H77         3.3560    1.6750   -2.1500 hc        1 MOL     -0.067068
    167 N15         6.6460    0.5100    1.5930 n         1 MOL     -0.147215
    168 C54         7.4380    0.5010    2.8980 c3        1 MOL     -0.208463
    169 H78         8.3000   -0.1580    2.7950 h1        1 MOL      0.098018
    170 H79         7.7780    1.5110    3.1250 h1        1 MOL      0.098018
    171 H80         6.8020    0.1420    3.7080 h1        1 MOL      0.098018
    172 H81         6.6540   -0.3830    1.1050 hn        1 MOL      0.148724
    173 Ca1        -1.3420    0.1110   -1.6450 Ca        1 MOL      1.777832
    174 O23        -0.5850   -2.3140   -2.5970 oh        1 MOL     -0.797738
    175 H82        -0.5500   -2.8440   -3.3940 ho        1 MOL      0.387366
    176 H83         0.3300   -2.0990   -2.4020 ho        1 MOL      0.387366
    177 O24        -1.3590   -0.3590   -4.4870 oh        1 MOL     -0.797738
    178 H84        -1.3650    0.2150   -5.2440 ho        1 MOL      0.387366
    179 H85        -1.7130   -1.1870   -4.8040 ho        1 MOL      0.387366
@<TRIPOS>BOND
     1    1    2 1   
     2    1    4 1   
     3    1    5 1   
     4    1    6 1   
     5    2    3 2   
     6    2    7 1   
     7    7    8 1   
     8    7   15 1   
     9    8    9 1   
    10    8   11 1   
    11    8   16 1   
    12    9   10 2   
    13    9   19 1   
    14   11   12 1   
    15   11   17 1   
    16   11   18 1   
    17   12   13 1   
    18   12   14 1   
    19   19   20 1   
    20   19   28 1   
    21   20   21 1   
    22   20   23 1   
    23   20   29 1   
    24   21   22 2   
    25   21   41 1   
    26   23   24 1   
    27   23   30 1   
    28   23   31 1   
    29   24   25 1   
    30   24   32 1   
    31   24   33 1   
    32   25   26 1   
    33   25   34 1   
    34   25   35 1   
    35   26   27 1   
    36   26   36 1   
    37   26   37 1   
    38   27   38 1   
    39   27   39 1   
    40   27   40 1   
    41   41   42 1   
    42   41   49 1   
    43   42   43 1   
    44   42   45 1   
    45   42   50 1   
    46   43   44 2   
    47   43   53 1   
    48   45   46 1   
    49   45   51 1   
    50   45   52 1   
    51   46   47 1   
    52   46   48 1   
    53   53   54 1   
    54   53   57 1   
    55   54   55 1   
    56   54   58 1   
    57   54   59 1   
    58   55   56 2   
    59   55   60 1   
    60   60   61 1   
    61   60   68 1   
    62   61   62 1   
    63   61   64 1   
    64   61   69 1   
    65   62   63 2   
    66   62   74 1   
    67   64   65 1   
    68   64   70 1   
    69   64   71 1   
    70   65   66 1   
    71   65   67 2   
    72   66   72 1   
    73   66   73 1   
    74   74   75 1   
    75   74   78 1   
    76   75   76 1   
    77   75   79 1   
    78   75   80 1   
    79   76   77 2   
    80   76   81 1   
    81   81   82 1   
    82   81   93 1   
    83   82   83 1   
    84   82   85 1   
    85   82   94 1   
    86   83   84 2   
    87   83  102 1   
    88   85   86 1   
    89   85   95 1   
    90   85   96 1   
    91   86   87 ar  
    92   86   88 ar  
    93   87   89 ar  
    94   87   97 1   
    95   88   90 ar  
    96   88   98 1   
    97   89   91 ar  
    98   89   99 1   
    99   90   91 ar  
   100   90  100 1   
   101   91   92 1   
   102   92  101 1   
   103  102  103 1   
   104  102  110 1   
   105  103  104 1   
   106  103  106 1   
   107  103  111 1   
   108  104  105 2   
   109  104  121 1   
   110  106  107 1   
   111  106  108 1   
   112  106  112 1   
   113  107  109 1   
   114  107  113 1   
   115  107  114 1   
   116  108  115 1   
   117  108  116 1   
   118  108  117 1   
   119  109  118 1   
   120  109  119 1   
   121  109  120 1   
   122  121  122 1   
   123  121  127 1   
   124  122  123 1   
   125  122  125 1   
   126  122  128 1   
   127  123  124 2   
   128  123  132 1   
   129  125  126 1   
   130  125  129 1   
   131  125  130 1   
   132  126  131 1   
   133  132  133 1   
   134  132  137 1   
   135  133  134 1   
   136  133  136 1   
   137  133  138 1   
   138  134  135 2   
   139  134  142 1   
   140  136  139 1   
   141  136  140 1   
   142  136  141 1   
   143  142  143 1   
   144  142  147 1   
   145  143  144 1   
   146  143  146 1   
   147  143  148 1   
   148  144  145 2   
   149  144  152 1   
   150  146  149 1   
   151  146  150 1   
   152  146  151 1   
   153  152  153 1   
   154  152  161 1   
   155  153  154 1   
   156  153  156 1   
   157  153  162 1   
   158  154  155 2   
   159  154  167 1   
   160  156  157 1   
   161  156  163 1   
   162  156  164 1   
   163  157  158 1   
   164  157  165 1   
   165  157  166 1   
   166  158  159 1   
   167  158  160 1   
   168  167  168 1   
   169  167  172 1   
   170  168  169 1   
   171  168  170 1   
   172  168  171 1   
   173  174  175 1   
   174  174  176 1   
   175  177  178 1   
   176  177  179 1   
@<TRIPOS>SUBSTRUCTURE
     1 MOL         1 TEMP              0 ****  ****    0 ROOT
