@<TRIPOS>MOLECULE
MOL
  175   173     1     0     0
SMALL
resp


@<TRIPOS>ATOM
      1 C1          0.7240    4.1880    5.5110 c3        1 MOL     -0.392806
      2 C2          0.0300    4.1120    4.1230 c         1 MOL      0.696414
      3 O1          0.6420    4.3220    3.1080 o         1 MOL     -0.544237
      4 H1          0.0220    3.8810    6.2850 hc        1 MOL      0.099471
      5 H2          1.5900    3.5250    5.5220 hc        1 MOL      0.099471
      6 H3          1.0470    5.2110    5.7000 hc        1 MOL      0.099471
      7 N1         -1.2720    3.6860    4.0080 n         1 MOL     -0.593551
      8 C3         -1.9400    3.4810    2.7070 c3        1 MOL      0.033516
      9 C4         -1.9550    4.7270    1.7540 c         1 MOL      0.793308
     10 O2         -2.0460    5.8470    2.1930 o         1 MOL     -0.586134
     11 C5         -3.4260    3.0660    2.9380 c3        1 MOL     -0.261225
     12 C6         -4.2260    2.7640    1.6950 c         1 MOL      0.718358
     13 O3         -5.4800    2.9630    1.7040 o         1 MOL     -0.651941
     14 O4         -3.6120    2.1960    0.7500 o         1 MOL     -0.651941
     15 H4         -1.7020    3.3720    4.8700 hn        1 MOL      0.308653
     16 H5         -1.5360    2.6040    2.1820 h1        1 MOL      0.040729
     17 H6         -3.9450    3.8480    3.5080 hc        1 MOL      0.043371
     18 H7         -3.5480    2.1400    3.4850 hc        1 MOL      0.043371
     19 N2         -2.1040    4.4710    0.4320 n         1 MOL     -0.749544
     20 C7         -2.1110    5.5160   -0.6380 c3        1 MOL      0.184606
     21 C8         -2.9210    5.1130   -1.9070 c         1 MOL      0.358539
     22 O5         -3.1170    5.8890   -2.8690 o         1 MOL     -0.549025
     23 C9         -0.6620    5.9090   -1.0320 c3        1 MOL     -0.189602
     24 H8         -2.2510    3.5420    0.0600 hn        1 MOL      0.540660
     25 H9         -2.5110    6.4520   -0.2430 h1        1 MOL      0.052936
     26 H10        -0.6150    6.8080   -1.6480 hc        1 MOL      0.053104
     27 H11        -0.0140    6.0050   -0.1570 hc        1 MOL      0.053104
     28 H12        -0.2160    5.0610   -1.5510 hc        1 MOL      0.053104
     29 N3         -3.4590    3.8630   -1.9280 n         1 MOL     -0.171337
     30 C10        -4.4680    3.3890   -2.9150 c3        1 MOL      0.091574
     31 C11        -5.7820    2.7360   -2.3380 c         1 MOL      0.254480
     32 O6         -6.7460    2.7090   -3.1240 o         1 MOL     -0.513627
     33 C12        -3.9140    2.4710   -3.9470 c3        1 MOL     -0.217456
     34 C13        -3.3200    1.1550   -3.4230 c         1 MOL      0.795996
     35 O7         -2.8410    0.4720   -4.3650 o         1 MOL     -0.707706
     36 O8         -3.3020    0.9360   -2.1840 o         1 MOL     -0.707706
     37 H13        -3.1620    3.2430   -1.1830 hn        1 MOL      0.089694
     38 H14        -4.8200    4.2740   -3.4620 h1        1 MOL      0.075054
     39 H15        -3.1170    3.0180   -4.4360 hc        1 MOL      0.049203
     40 H16        -4.6650    2.1940   -4.6810 hc        1 MOL      0.049203
     41 N4         -5.8190    2.1970   -1.0970 n         1 MOL      0.049602
     42 C14        -6.9000    1.3800   -0.6390 c3        1 MOL     -0.353610
     43 C15        -7.0700    0.0470   -1.3080 c         1 MOL      0.480594
     44 O9         -8.1870   -0.4720   -1.2700 o         1 MOL     -0.582516
     45 H17        -5.0210    2.3360   -0.5010 hn        1 MOL      0.011540
     46 H18        -7.8330    1.8560   -0.9320 h1        1 MOL      0.144025
     47 H19        -6.8000    1.2610    0.4360 h1        1 MOL      0.144025
     48 N5         -5.9870   -0.6130   -1.7630 n         1 MOL      0.012875
     49 C16        -6.0510   -1.9790   -2.3060 c3        1 MOL     -0.277574
     50 C17        -6.3550   -3.1050   -1.2040 c         1 MOL      0.553914
     51 O10        -6.8370   -4.1670   -1.5370 o         1 MOL     -0.553061
     52 C18        -4.8100   -2.3110   -3.1640 c3        1 MOL      0.070098
     53 C19        -3.5200   -2.2550   -2.3840 c         1 MOL      0.475954
     54 N6         -2.4460   -2.6240   -3.0960 n         1 MOL     -0.636725
     55 O11        -3.4540   -1.9990   -1.1730 o         1 MOL     -0.574657
     56 H20        -5.1280   -0.1050   -1.8870 hn        1 MOL      0.068578
     57 H21        -6.9590   -1.9930   -2.9060 h1        1 MOL      0.120208
     58 H22        -4.6780   -1.7150   -4.0580 hc        1 MOL      0.029559
     59 H23        -4.8350   -3.2940   -3.6350 hc        1 MOL      0.029559
     60 H24        -2.5030   -2.8600   -4.0790 hn        1 MOL      0.337943
     61 H25        -1.5780   -2.7330   -2.5910 hn        1 MOL      0.337943
     62 N7         -6.0630   -2.8330    0.0760 n         1 MOL     -0.175407
     63 C20        -6.3450   -3.7280    1.2160 c3        1 MOL     -0.264299
     64 C21        -5.0290   -4.5190    1.5780 c         1 MOL      0.507768
     65 O12        -5.0040   -5.4430    2.4150 o         1 MOL     -0.594062
     66 H26        -5.4530   -2.0340    0.2050 hn        1 MOL      0.140794
     67 H27        -7.0780   -4.4960    0.9750 h1        1 MOL      0.130498
     68 H28        -6.6340   -3.1430    2.0880 h1        1 MOL      0.130498
     69 N8         -3.8660   -4.1610    1.0530 n         1 MOL     -0.091096
     70 C22        -2.5220   -4.5600    1.5010 c3        1 MOL     -0.312662
     71 C23        -1.6220   -3.4170    1.6430 c         1 MOL      0.664309
     72 O13        -1.7850   -2.3630    1.0230 o         1 MOL     -0.586015
     73 C24        -1.9290   -5.5990    0.4940 c3        1 MOL      0.451287
     74 C25        -2.8680   -6.8050    0.3750 c3        1 MOL     -0.422275
     75 O14        -1.7730   -5.1160   -0.8140 oh        1 MOL     -0.616702
     76 H29        -3.9080   -3.4500    0.3370 hn        1 MOL      0.154358
     77 H30        -2.7190   -4.8590    2.5270 h1        1 MOL      0.135092
     78 H31        -0.9620   -5.9060    0.8960 h1        1 MOL     -0.027149
     79 H32        -1.1870   -4.3500   -0.8630 ho        1 MOL      0.434403
     80 H33        -3.0310   -7.1620    1.3910 hc        1 MOL      0.107317
     81 H34        -3.8720   -6.5780    0.0100 hc        1 MOL      0.107317
     82 H35        -2.4830   -7.5840   -0.2750 hc        1 MOL      0.107317
     83 N9         -0.5740   -3.6070    2.4890 n         1 MOL     -0.609314
     84 C26         0.6770   -2.8480    2.4200 c3        1 MOL     -0.001077
     85 C27         1.5380   -3.3330    1.2070 c         1 MOL      0.445738
     86 O15         1.5760   -4.5260    0.8060 o         1 MOL     -0.497401
     87 C28         1.4270   -2.7850    3.8050 c3        1 MOL      0.463900
     88 C29         0.6480   -2.1410    5.0060 c3        1 MOL      0.115850
     89 C30         2.8420   -2.0350    3.7310 c3        1 MOL     -0.526044
     90 C31         1.4940   -2.0650    6.3250 c3        1 MOL     -0.179317
     91 H36        -0.5700   -4.5210    2.9290 hn        1 MOL      0.309793
     92 H37         0.3960   -1.8070    2.2410 h1        1 MOL      0.014287
     93 H38         1.6930   -3.8090    4.0550 hc        1 MOL     -0.090104
     94 H39        -0.1910   -2.8210    5.1980 hc        1 MOL     -0.066601
     95 H40         0.3410   -1.1620    4.6290 hc        1 MOL     -0.066601
     96 H41         2.6830   -0.9710    3.5200 hc        1 MOL      0.114500
     97 H42         3.4080   -2.0100    4.6530 hc        1 MOL      0.114500
     98 H43         3.3610   -2.6310    2.9780 hc        1 MOL      0.114500
     99 H44         2.1000   -1.1640    6.2910 hc        1 MOL      0.040171
    100 H45         0.7710   -1.8860    7.1190 hc        1 MOL      0.040171
    101 H46         2.0620   -2.9620    6.5890 hc        1 MOL      0.040171
    102 N10         2.0780   -2.2980    0.5210 n         1 MOL     -0.449559
    103 C32         2.6770   -2.2730   -0.8500 c3        1 MOL      0.093551
    104 C33         4.0460   -1.6150   -0.7430 c         1 MOL      0.722049
    105 O16         4.3430   -0.8760    0.1830 o         1 MOL     -0.568920
    106 C34         1.7770   -1.6190   -1.9080 c3        1 MOL     -0.158859
    107 C35         0.3030   -1.9280   -1.7420 c         1 MOL      0.776317
    108 O17        -0.4860   -0.9260   -1.6340 o         1 MOL     -0.692892
    109 O18         0.0170   -3.1750   -1.8710 o         1 MOL     -0.692892
    110 H47         2.0060   -1.3460    0.8670 hn        1 MOL      0.300379
    111 H48         2.8210   -3.3060   -1.1830 h1        1 MOL      0.049850
    112 H49         2.1130   -1.9340   -2.8940 hc        1 MOL      0.035397
    113 H50         1.9220   -0.5350   -1.9540 hc        1 MOL      0.035397
    114 N11         4.9580   -1.9410   -1.6580 n         1 MOL     -0.825601
    115 C36         6.3660   -1.5540   -1.5740 c3        1 MOL      0.537928
    116 C37         6.6120    0.0170   -1.2930 c         1 MOL      0.286759
    117 O19         7.3620    0.3740   -0.3780 o         1 MOL     -0.484051
    118 C38         7.1410   -2.1220   -2.7420 c3        1 MOL     -0.349788
    119 C39         8.6560   -2.0490   -2.4040 ca        1 MOL      0.210017
    120 C40         9.5020   -1.1450   -3.0850 ca        1 MOL     -0.272370
    121 C41         9.1130   -2.7880   -1.3130 ca        1 MOL     -0.272370
    122 C42        10.8190   -1.0030   -2.5180 ca        1 MOL     -0.000925
    123 C43        10.4070   -2.7430   -0.8810 ca        1 MOL     -0.000925
    124 C44        11.2830   -1.8660   -1.5430 ca        1 MOL     -0.219877
    125 H51         4.6140   -2.4740   -2.4430 hn        1 MOL      0.358393
    126 H52         6.7740   -1.9620   -0.6430 h1        1 MOL      0.012301
    127 H53         6.8880   -1.4540   -3.5600 hc        1 MOL      0.101519
    128 H54         6.8340   -3.1530   -2.9340 hc        1 MOL      0.101519
    129 H55         9.1700   -0.3020   -3.6840 ha        1 MOL      0.136388
    130 H56         8.4680   -3.5930   -1.0060 ha        1 MOL      0.136388
    131 H57        11.4270   -0.1500   -2.7710 ha        1 MOL      0.096373
    132 H58        10.6940   -3.4010   -0.0690 ha        1 MOL      0.096373
    133 H59        12.2660   -1.6710   -1.1540 ha        1 MOL      0.116646
    134 N12         5.9240    0.9760   -1.9550 n         1 MOL     -0.026026
    135 C45         6.1180    2.3890   -1.7590 c3        1 MOL     -0.103672
    136 C46         5.5350    2.9230   -0.4650 c         1 MOL      0.410130
    137 O20         5.9270    4.0100    0.0120 o         1 MOL     -0.521927
    138 C47         5.5100    3.0520   -3.0190 c3        1 MOL     -0.128148
    139 C48         4.5370    2.0710   -3.6160 c3        1 MOL      0.038597
    140 C49         5.0160    0.7060   -3.0760 c3        1 MOL     -0.066371
    141 H60         7.1190    2.8170   -1.8100 h1        1 MOL      0.095703
    142 H61         4.9850    4.0020   -2.9270 hc        1 MOL      0.065217
    143 H62         6.2670    3.1330   -3.8070 hc        1 MOL      0.065217
    144 H63         3.5130    2.2080   -3.2660 hc        1 MOL      0.024782
    145 H64         4.5480    2.1260   -4.7040 hc        1 MOL      0.024782
    146 H65         4.1920    0.1220   -2.6750 h1        1 MOL      0.025302
    147 H66         5.3990    0.0340   -3.8430 h1        1 MOL      0.025302
    148 N13         4.6120    2.1620    0.0900 n         1 MOL     -0.123606
    149 C50         4.0940    2.4750    1.3790 c3        1 MOL     -0.359200
    150 C51         5.0480    1.8620    2.4030 c         1 MOL      0.613429
    151 O21         5.1690    2.4070    3.5130 o         1 MOL     -0.599576
    152 C52         2.6330    1.9810    1.5080 c3        1 MOL      0.233246
    153 C53         1.7530    2.2770    0.2470 c3        1 MOL     -0.162528
    154 C54         0.3390    1.6300    0.3650 c         1 MOL      0.532707
    155 O22        -0.6070    2.0350   -0.4130 o         1 MOL     -0.712333
    156 O23         0.0690    0.6550    1.1360 o         1 MOL     -0.712333
    157 H67         4.3560    1.2520   -0.2730 hn        1 MOL      0.196884
    158 H68         4.0720    3.5570    1.5190 h1        1 MOL      0.158510
    159 H69         2.2390    2.3520    2.4560 hc        1 MOL     -0.006791
    160 H70         2.7060    0.8950    1.6100 hc        1 MOL     -0.006791
    161 H71         2.1800    1.9630   -0.7030 hc        1 MOL      0.085135
    162 H72         1.5960    3.3530    0.1030 hc        1 MOL      0.085135
    163 N14         5.7230    0.7850    2.1220 n         1 MOL     -0.172096
    164 C55         6.7280    0.1710    2.9790 c3        1 MOL     -0.339443
    165 H73         6.2740   -0.1010    3.9330 h1        1 MOL      0.122001
    166 H74         7.1210   -0.7230    2.4960 h1        1 MOL      0.122001
    167 H75         7.5390    0.8780    3.1530 h1        1 MOL      0.122001
    168 H76         5.6870    0.5170    1.1540 hn        1 MOL      0.192001
    169 Ca1        -2.2640   -0.0520    0.1060 Ca        1 MOL      1.759544
    170 O24        -1.6810    0.2910    3.0090 oh        1 MOL     -0.856672
    171 H77        -1.6610    0.5910    3.9200 ho        1 MOL      0.426451
    172 H78        -0.7610    0.3170    2.7320 ho        1 MOL      0.426451
    173 O25        -4.2700   -0.7220    1.7680 oh        1 MOL     -0.856672
    174 H79        -5.1570   -0.5880    2.0870 ho        1 MOL      0.426451
    175 H80        -3.7090   -0.5490    2.5310 ho        1 MOL      0.426451
@<TRIPOS>BOND
     1    1    2 1   
     2    1    4 1   
     3    1    5 1   
     4    1    6 1   
     5    2    3 2   
     6    2    7 1   
     7    7    8 1   
     8    7   15 1   
     9    8    9 1   
    10    8   11 1   
    11    8   16 1   
    12    9   10 2   
    13    9   19 1   
    14   11   12 1   
    15   11   17 1   
    16   11   18 1   
    17   12   13 1   
    18   12   14 1   
    19   19   20 1   
    20   19   24 1   
    21   20   21 1   
    22   20   23 1   
    23   20   25 1   
    24   21   22 2   
    25   21   29 1   
    26   23   26 1   
    27   23   27 1   
    28   23   28 1   
    29   29   30 1   
    30   29   37 1   
    31   30   31 1   
    32   30   33 1   
    33   30   38 1   
    34   31   32 2   
    35   31   41 1   
    36   33   34 1   
    37   33   39 1   
    38   33   40 1   
    39   34   35 1   
    40   34   36 1   
    41   41   42 1   
    42   41   45 1   
    43   42   43 1   
    44   42   46 1   
    45   42   47 1   
    46   43   44 2   
    47   43   48 1   
    48   48   49 1   
    49   48   56 1   
    50   49   50 1   
    51   49   52 1   
    52   49   57 1   
    53   50   51 2   
    54   50   62 1   
    55   52   53 1   
    56   52   58 1   
    57   52   59 1   
    58   53   54 1   
    59   53   55 2   
    60   54   60 1   
    61   54   61 1   
    62   62   63 1   
    63   62   66 1   
    64   63   64 1   
    65   63   67 1   
    66   63   68 1   
    67   64   65 2   
    68   64   69 1   
    69   69   70 1   
    70   69   76 1   
    71   70   71 1   
    72   70   73 1   
    73   70   77 1   
    74   71   72 2   
    75   71   83 1   
    76   73   74 1   
    77   73   75 1   
    78   73   78 1   
    79   74   80 1   
    80   74   81 1   
    81   74   82 1   
    82   75   79 1   
    83   83   84 1   
    84   83   91 1   
    85   84   85 1   
    86   84   87 1   
    87   84   92 1   
    88   85   86 2   
    89   85  102 1   
    90   87   88 1   
    91   87   89 1   
    92   87   93 1   
    93   88   90 1   
    94   88   94 1   
    95   88   95 1   
    96   89   96 1   
    97   89   97 1   
    98   89   98 1   
    99   90   99 1   
   100   90  100 1   
   101   90  101 1   
   102  102  103 1   
   103  102  110 1   
   104  103  104 1   
   105  103  106 1   
   106  103  111 1   
   107  104  105 2   
   108  104  114 1   
   109  106  107 1   
   110  106  112 1   
   111  106  113 1   
   112  107  108 1   
   113  107  109 1   
   114  114  115 1   
   115  114  125 1   
   116  115  116 1   
   117  115  118 1   
   118  115  126 1   
   119  116  117 2   
   120  116  134 1   
   121  118  119 1   
   122  118  127 1   
   123  118  128 1   
   124  119  120 ar  
   125  119  121 ar  
   126  120  122 ar  
   127  120  129 1   
   128  121  123 ar  
   129  121  130 1   
   130  122  124 ar  
   131  122  131 1   
   132  123  124 ar  
   133  123  132 1   
   134  124  133 1   
   135  134  135 1   
   136  134  140 1   
   137  135  136 1   
   138  135  138 1   
   139  135  141 1   
   140  136  137 2   
   141  136  148 1   
   142  138  139 1   
   143  138  142 1   
   144  138  143 1   
   145  139  140 1   
   146  139  144 1   
   147  139  145 1   
   148  140  146 1   
   149  140  147 1   
   150  148  149 1   
   151  148  157 1   
   152  149  150 1   
   153  149  152 1   
   154  149  158 1   
   155  150  151 2   
   156  150  163 1   
   157  152  153 1   
   158  152  159 1   
   159  152  160 1   
   160  153  154 1   
   161  153  161 1   
   162  153  162 1   
   163  154  155 1   
   164  154  156 1   
   165  163  164 1   
   166  163  168 1   
   167  164  165 1   
   168  164  166 1   
   169  164  167 1   
   170  170  171 1   
   171  170  172 1   
   172  173  174 1   
   173  173  175 1   
@<TRIPOS>SUBSTRUCTURE
     1 MOL         1 TEMP              0 ****  ****    0 ROOT
