@<TRIPOS>MOLECULE
MOL
  189   185     1     0     0
SMALL
resp


@<TRIPOS>ATOM
      1 C1          0.5030    2.0790    5.6220 c3        1 MOL     -0.204587
      2 C2         -0.1050    2.0220    4.2120 c         1 MOL      0.691458
      3 O1          0.5480    2.3280    3.1980 o         1 MOL     -0.681738
      4 H1          1.5460    2.3850    5.5540 hc        1 MOL      0.056607
      5 H2         -0.0480    2.8000    6.2260 hc        1 MOL      0.056607
      6 H3          0.4410    1.0950    6.0850 hc        1 MOL      0.056607
      7 N1         -1.3980    1.6190    4.0730 n         1 MOL     -0.613590
      8 C3         -2.0730    1.4630    2.7960 c3        1 MOL      0.104564
      9 C4         -2.5420    2.7750    2.1120 c         1 MOL      0.474128
     10 O2         -3.6590    3.2230    2.2000 o         1 MOL     -0.454315
     11 C5         -3.2310    0.4220    2.8610 c3        1 MOL     -0.182393
     12 C6         -3.8730   -0.0100    1.5570 c         1 MOL      0.659634
     13 O3         -3.3020    0.1390    0.4190 o         1 MOL     -0.621087
     14 O4         -5.0090   -0.5420    1.6540 o         1 MOL     -0.621087
     15 H4         -1.8120    1.2570    4.9150 hn        1 MOL      0.338305
     16 H5         -1.3110    1.0830    2.1190 h1        1 MOL      0.085432
     17 H6         -4.0030    0.8130    3.5220 hc        1 MOL      0.053788
     18 H7         -2.8370   -0.4730    3.3500 hc        1 MOL      0.053788
     19 N2         -1.5860    3.5380    1.5190 n         1 MOL     -0.395745
     20 C7         -1.8520    4.9820    1.0230 c3        1 MOL      0.081354
     21 C8         -3.0130    5.0940    0.1480 c         1 MOL      0.370320
     22 O5         -3.8720    6.0300    0.2880 o         1 MOL     -0.562790
     23 C9         -0.6040    5.3850    0.2180 c3        1 MOL     -0.415224
     24 C10         0.5600    5.8050    1.1460 c3        1 MOL      0.392200
     25 C11         0.2030    7.0750    1.9110 c3        1 MOL     -0.420307
     26 C12         1.3270    7.5620    2.7820 c3        1 MOL      0.072683
     27 N3          1.5330    6.6560    3.9720 n4        1 MOL     -0.515526
     28 H8         -0.6550    3.1630    1.5100 hn        1 MOL      0.357930
     29 H9         -2.0400    5.6580    1.8570 h1        1 MOL      0.042421
     30 H10        -0.9190    6.2490   -0.3630 hc        1 MOL      0.109608
     31 H11        -0.4280    4.5310   -0.4440 hc        1 MOL      0.109608
     32 H12         1.4980    5.7720    0.6000 hc        1 MOL     -0.043722
     33 H13         0.7070    5.0600    1.9270 hc        1 MOL     -0.043722
     34 H14        -0.6030    6.7850    2.5940 hc        1 MOL      0.157117
     35 H15        -0.0960    7.8590    1.2270 hc        1 MOL      0.157117
     36 H16         1.1540    8.5770    3.1330 hx        1 MOL      0.103683
     37 H17         2.2230    7.7520    2.2060 hx        1 MOL      0.103683
     38 H18         2.3350    6.8600    4.5550 hn        1 MOL      0.367472
     39 H19         0.6960    6.5730    4.5400 hn        1 MOL      0.367472
     40 H20         1.6740    5.6800    3.7820 hn        1 MOL      0.367472
     41 N4         -3.1880    4.1070   -0.7330 n         1 MOL      0.015974
     42 C13        -4.1820    4.1740   -1.7840 c3        1 MOL     -0.059039
     43 C14        -5.3730    3.2400   -1.4720 c         1 MOL      0.373904
     44 O6         -6.2990    3.1800   -2.2530 o         1 MOL     -0.501877
     45 C15        -3.5430    3.9760   -3.2000 c3        1 MOL     -0.124090
     46 C16        -2.7450    2.7180   -3.4290 c         1 MOL      0.848227
     47 O7         -2.0980    2.6550   -4.4890 o         1 MOL     -0.758207
     48 O8         -2.7620    1.8630   -2.5530 o         1 MOL     -0.758207
     49 H21        -2.5170    3.3680   -0.8800 hn        1 MOL      0.085350
     50 H22        -4.5620    5.1830   -1.9040 h1        1 MOL      0.089743
     51 H23        -2.8450    4.8100   -3.2850 hc        1 MOL      0.020474
     52 H24        -4.3480    4.0380   -3.9270 hc        1 MOL      0.020474
     53 N5         -5.3900    2.5320   -0.3650 n         1 MOL      0.025760
     54 C17        -6.5900    2.0350    0.3080 c3        1 MOL     -0.115466
     55 C18        -7.2620    0.9480   -0.5340 c         1 MOL      0.456842
     56 O9         -8.4640    1.0310   -0.8720 o         1 MOL     -0.589255
     57 H25        -4.5490    2.6240    0.1890 hn        1 MOL     -0.011586
     58 H26        -7.2850    2.8710    0.3670 h1        1 MOL      0.085860
     59 H27        -6.3840    1.6810    1.3190 h1        1 MOL      0.085860
     60 N6         -6.5630   -0.0750   -0.9520 n         1 MOL      0.025702
     61 C19        -7.0470   -1.2220   -1.7680 c3        1 MOL     -0.067454
     62 C20        -7.0770   -2.5320   -0.9760 c         1 MOL      0.330215
     63 O10        -7.4520   -3.5510   -1.5280 o         1 MOL     -0.507074
     64 C21        -6.1480   -1.4600   -2.9870 c3        1 MOL     -0.147082
     65 C22        -4.6800   -1.4140   -2.7050 c         1 MOL      0.657162
     66 O11        -4.2420   -1.9520   -1.6500 o         1 MOL     -0.684234
     67 O12        -3.9510   -0.6950   -3.5010 o         1 MOL     -0.684234
     68 H28        -5.6500   -0.1410   -0.5130 hn        1 MOL     -0.142910
     69 H29        -8.0170   -0.9640   -2.2070 h1        1 MOL      0.141050
     70 H30        -6.4440   -0.7660   -3.7670 hc        1 MOL      0.063206
     71 H31        -6.3520   -2.4710   -3.3300 hc        1 MOL      0.063206
     72 N7         -6.6220   -2.5670    0.2620 n         1 MOL     -0.138488
     73 C23        -6.5800   -3.7170    1.2350 c3        1 MOL     -0.260924
     74 C24        -5.2320   -4.5620    1.2710 c         1 MOL      0.587563
     75 O13        -5.0430   -5.6070    1.8280 o         1 MOL     -0.554754
     76 H32        -6.1410   -1.7290    0.5780 hn        1 MOL      0.187056
     77 H33        -7.4900   -4.2440    0.9570 h1        1 MOL      0.126549
     78 H34        -6.6980   -3.2410    2.2090 h1        1 MOL      0.126549
     79 N8         -4.1040   -4.0090    0.6790 n         1 MOL     -0.158932
     80 C25        -2.7600   -4.6160    0.5040 c3        1 MOL     -0.598873
     81 C26        -1.5910   -3.5960    0.7150 c         1 MOL      0.691591
     82 O14        -1.5450   -2.5480    0.0680 o         1 MOL     -0.641110
     83 C27        -2.6420   -5.3530   -0.8170 c3        1 MOL      0.541008
     84 C28        -3.3500   -6.6910   -0.7070 c3        1 MOL     -0.283360
     85 O15        -3.2220   -4.6980   -1.8840 oh        1 MOL     -0.667231
     86 H35        -4.2420   -3.0470    0.3910 hn        1 MOL      0.253699
     87 H36        -2.5280   -5.2990    1.3230 h1        1 MOL      0.197193
     88 H37        -1.6400   -5.6520   -1.1220 h1        1 MOL     -0.037459
     89 H38        -3.4310   -3.7960   -1.6160 ho        1 MOL      0.485009
     90 H39        -4.3590   -6.4900   -0.3590 hc        1 MOL      0.070458
     91 H40        -3.3670   -7.3030   -1.6080 hc        1 MOL      0.070458
     92 H41        -2.7710   -7.3120   -0.0090 hc        1 MOL      0.070458
     93 N9         -0.6330   -3.8940    1.6290 n         1 MOL     -0.445744
     94 C29         0.5720   -3.1090    1.9860 c3        1 MOL     -0.074174
     95 C30         1.7950   -3.5800    1.1720 c         1 MOL      0.443041
     96 O16         2.2880   -4.6850    1.3900 o         1 MOL     -0.538361
     97 C31         0.7760   -3.1210    3.4580 c3        1 MOL      0.098184
     98 C32        -0.3350   -2.3890    4.2890 c3        1 MOL      0.323776
     99 C33         2.2160   -2.7090    3.9060 c3        1 MOL     -0.486764
    100 C34        -0.3600   -2.7350    5.7900 c3        1 MOL     -0.372799
    101 H42        -0.6960   -4.7350    2.1730 hn        1 MOL      0.267855
    102 H43         0.2990   -2.0800    1.7630 h1        1 MOL      0.100071
    103 H44         0.7750   -4.1690    3.7640 hc        1 MOL      0.029013
    104 H45        -1.2720   -2.6150    3.7860 hc        1 MOL     -0.048604
    105 H46        -0.1730   -1.3170    4.1660 hc        1 MOL     -0.048604
    106 H47         2.3200   -2.9510    4.9580 hc        1 MOL      0.117649
    107 H48         2.9820   -3.3260    3.4390 hc        1 MOL      0.117649
    108 H49         2.4380   -1.6540    3.7310 hc        1 MOL      0.117649
    109 H50         0.6620   -2.6170    6.1560 hc        1 MOL      0.080416
    110 H51        -1.1170   -2.0300    6.1310 hc        1 MOL      0.080416
    111 H52        -0.5980   -3.8070    5.8590 hc        1 MOL      0.080416
    112 N10         2.3040   -2.8220    0.2220 n         1 MOL     -0.214223
    113 C35         3.3710   -3.1390   -0.7500 c3        1 MOL     -0.110586
    114 C36         4.7540   -2.8380   -0.1540 c         1 MOL      0.492583
    115 O17         4.9040   -2.0860    0.8300 o         1 MOL     -0.427179
    116 C37         3.1830   -2.3370   -2.0970 c3        1 MOL      0.430282
    117 C38         1.9770   -2.8300   -2.8160 c3        1 MOL     -0.590738
    118 O18         2.9740   -0.9530   -1.8750 oh        1 MOL     -0.640289
    119 H53         1.8250   -1.9500    0.0850 hn        1 MOL      0.377123
    120 H54         3.3570   -4.1870   -1.0470 h1        1 MOL      0.094384
    121 H55         4.0170   -2.4540   -2.8000 h1        1 MOL      0.002060
    122 H56         2.0780   -0.8960   -1.5610 ho        1 MOL      0.400705
    123 H57         1.9130   -2.2340   -3.7200 hc        1 MOL      0.145181
    124 H58         2.0570   -3.9010   -3.0250 hc        1 MOL      0.145181
    125 H59         1.1160   -2.6420   -2.1680 hc        1 MOL      0.145181
    126 N11         5.7930   -3.3460   -0.7730 n         1 MOL     -0.409580
    127 C39         7.1960   -2.9820   -0.3680 c3        1 MOL      0.074520
    128 C40         7.5160   -1.5400   -0.3930 c         1 MOL      0.230917
    129 O19         8.1560   -1.0740    0.5420 o         1 MOL     -0.445663
    130 C41         8.2200   -3.7190   -1.3100 c3        1 MOL      0.429364
    131 C42         9.5510   -3.7330   -0.5920 c3        1 MOL     -0.502389
    132 O20         7.8740   -5.1300   -1.4360 oh        1 MOL     -0.629456
    133 H60         5.6160   -3.8630   -1.6180 hn        1 MOL      0.212269
    134 H61         7.3920   -3.3610    0.6320 h1        1 MOL      0.129538
    135 H62         8.2600   -3.3120   -2.3230 h1        1 MOL     -0.027730
    136 H63         8.0230   -5.4850   -2.3120 ho        1 MOL      0.399372
    137 H64         9.5910   -4.2000    0.3930 hc        1 MOL      0.136553
    138 H65        10.2760   -4.3290   -1.1470 hc        1 MOL      0.136553
    139 H66         9.8830   -2.7130   -0.4550 hc        1 MOL      0.136553
    140 N12         6.9710   -0.7720   -1.3760 n         1 MOL     -0.255586
    141 C43         7.0590    0.6990   -1.3610 c3        1 MOL     -0.005475
    142 C44         6.1390    1.2870   -0.3240 c         1 MOL      0.399447
    143 O21         6.5480    2.2630    0.2630 o         1 MOL     -0.557233
    144 C45         6.7470    1.1730   -2.7770 c3        1 MOL     -0.081642
    145 C46         7.0440    2.6830   -2.8250 c3        1 MOL     -0.097213
    146 C47         6.7920    3.1200   -4.2470 c3        1 MOL      0.103990
    147 C48         6.6040    4.5890   -4.3170 c3        1 MOL      0.002726
    148 N13         6.3080    5.0070   -5.6490 n4        1 MOL     -0.209699
    149 H67         6.6130   -1.2730   -2.1770 hn        1 MOL      0.213713
    150 H68         8.0470    1.0020   -1.0320 h1        1 MOL      0.128216
    151 H69         5.7260    0.9570   -3.1100 hc        1 MOL      0.042383
    152 H70         7.4540    0.6710   -3.4430 hc        1 MOL      0.042383
    153 H71         8.0820    2.8340   -2.4990 hc        1 MOL      0.049722
    154 H72         6.3820    3.1630   -2.1040 hc        1 MOL      0.049722
    155 H73         5.9730    2.6980   -4.8300 hc        1 MOL      0.001483
    156 H74         7.6490    2.8450   -4.8570 hc        1 MOL      0.001483
    157 H75         7.4610    5.1580   -3.9430 hx        1 MOL      0.077573
    158 H76         5.7240    4.8050   -3.7110 hx        1 MOL      0.077573
    159 H77         7.1310    4.8230   -6.2160 hn        1 MOL      0.273490
    160 H78         5.5470    4.4820   -6.0600 hn        1 MOL      0.273490
    161 H79         6.0640    5.9810   -5.7760 hn        1 MOL      0.273490
    162 N14         5.0220    0.7310    0.1570 n         1 MOL      0.027228
    163 C49         4.0800    1.3060    1.2210 c3        1 MOL     -0.193903
    164 C50         4.5590    1.0640    2.6620 c         1 MOL      0.518902
    165 O22         4.4430    1.9370    3.4860 o         1 MOL     -0.570044
    166 C51         2.6690    0.7280    1.0380 c3        1 MOL      0.229008
    167 C52         1.8950    1.4030   -0.0600 c3        1 MOL     -0.110302
    168 C53         0.6350    0.5730   -0.4470 c         1 MOL      0.712964
    169 O23        -0.4860    1.1640   -0.4370 o         1 MOL     -0.765259
    170 O24         0.6390   -0.6290   -0.6820 o         1 MOL     -0.765259
    171 H80         4.7060   -0.1440   -0.2440 hn        1 MOL      0.042427
    172 H81         4.0400    2.3840    1.0500 h1        1 MOL      0.088815
    173 H82         2.0920    0.7830    1.9610 hc        1 MOL     -0.059453
    174 H83         2.8690   -0.3010    0.7460 hc        1 MOL     -0.059453
    175 H84         2.5450    1.5930   -0.9180 hc        1 MOL     -0.001126
    176 H85         1.6560    2.4080    0.2980 hc        1 MOL     -0.001126
    177 N15         5.2290   -0.0660    2.9430 n         1 MOL     -0.104081
    178 C54         6.0640   -0.0250    4.1540 c3        1 MOL     -0.384456
    179 H86         7.0950    0.2000    3.8770 h1        1 MOL      0.134924
    180 H87         5.6930    0.7480    4.8270 h1        1 MOL      0.134924
    181 H88         6.0270   -0.9920    4.6560 h1        1 MOL      0.134924
    182 H89         5.3400   -0.8420    2.3060 hn        1 MOL      0.177863
    183 Ca1        -2.0700   -0.3970   -1.6740 Ca        1 MOL      1.839543
    184 O25        -0.7260    0.0540   -4.0490 oh        1 MOL     -0.865668
    185 H90        -0.8870    0.9890   -4.1190 ho        1 MOL      0.404672
    186 H91        -0.5940   -0.2490   -4.9450 ho        1 MOL      0.404672
    187 O26        -1.5250   -2.7400   -3.2340 oh        1 MOL     -0.865668
    188 H92        -0.8210   -2.7390   -3.8810 ho        1 MOL      0.404672
    189 H93        -1.8850   -3.6240   -3.2750 ho        1 MOL      0.404672
@<TRIPOS>BOND
     1    1    2 1   
     2    1    4 1   
     3    1    5 1   
     4    1    6 1   
     5    2    3 2   
     6    2    7 1   
     7    7    8 1   
     8    7   15 1   
     9    8    9 1   
    10    8   11 1   
    11    8   16 1   
    12    9   10 2   
    13    9   19 1   
    14   11   12 1   
    15   11   17 1   
    16   11   18 1   
    17   12   13 1   
    18   12   14 1   
    19   19   20 1   
    20   19   28 1   
    21   20   21 1   
    22   20   23 1   
    23   20   29 1   
    24   21   22 2   
    25   21   41 1   
    26   23   24 1   
    27   23   30 1   
    28   23   31 1   
    29   24   25 1   
    30   24   32 1   
    31   24   33 1   
    32   25   26 1   
    33   25   34 1   
    34   25   35 1   
    35   26   27 1   
    36   26   36 1   
    37   26   37 1   
    38   27   38 1   
    39   27   39 1   
    40   27   40 1   
    41   41   42 1   
    42   41   49 1   
    43   42   43 1   
    44   42   45 1   
    45   42   50 1   
    46   43   44 2   
    47   43   53 1   
    48   45   46 1   
    49   45   51 1   
    50   45   52 1   
    51   46   47 1   
    52   46   48 1   
    53   53   54 1   
    54   53   57 1   
    55   54   55 1   
    56   54   58 1   
    57   54   59 1   
    58   55   56 2   
    59   55   60 1   
    60   60   61 1   
    61   60   68 1   
    62   61   62 1   
    63   61   64 1   
    64   61   69 1   
    65   62   63 2   
    66   62   72 1   
    67   64   65 1   
    68   64   70 1   
    69   64   71 1   
    70   65   66 1   
    71   65   67 1   
    72   72   73 1   
    73   72   76 1   
    74   73   74 1   
    75   73   77 1   
    76   73   78 1   
    77   74   75 2   
    78   74   79 1   
    79   79   80 1   
    80   79   86 1   
    81   80   81 1   
    82   80   83 1   
    83   80   87 1   
    84   81   82 2   
    85   81   93 1   
    86   83   84 1   
    87   83   85 1   
    88   83   88 1   
    89   84   90 1   
    90   84   91 1   
    91   84   92 1   
    92   85   89 1   
    93   93   94 1   
    94   93  101 1   
    95   94   95 1   
    96   94   97 1   
    97   94  102 1   
    98   95   96 2   
    99   95  112 1   
   100   97   98 1   
   101   97   99 1   
   102   97  103 1   
   103   98  100 1   
   104   98  104 1   
   105   98  105 1   
   106   99  106 1   
   107   99  107 1   
   108   99  108 1   
   109  100  109 1   
   110  100  110 1   
   111  100  111 1   
   112  112  113 1   
   113  112  119 1   
   114  113  114 1   
   115  113  116 1   
   116  113  120 1   
   117  114  115 2   
   118  114  126 1   
   119  116  117 1   
   120  116  118 1   
   121  116  121 1   
   122  117  123 1   
   123  117  124 1   
   124  117  125 1   
   125  118  122 1   
   126  126  127 1   
   127  126  133 1   
   128  127  128 1   
   129  127  130 1   
   130  127  134 1   
   131  128  129 2   
   132  128  140 1   
   133  130  131 1   
   134  130  132 1   
   135  130  135 1   
   136  131  137 1   
   137  131  138 1   
   138  131  139 1   
   139  132  136 1   
   140  140  141 1   
   141  140  149 1   
   142  141  142 1   
   143  141  144 1   
   144  141  150 1   
   145  142  143 2   
   146  142  162 1   
   147  144  145 1   
   148  144  151 1   
   149  144  152 1   
   150  145  146 1   
   151  145  153 1   
   152  145  154 1   
   153  146  147 1   
   154  146  155 1   
   155  146  156 1   
   156  147  148 1   
   157  147  157 1   
   158  147  158 1   
   159  148  159 1   
   160  148  160 1   
   161  148  161 1   
   162  162  163 1   
   163  162  171 1   
   164  163  164 1   
   165  163  166 1   
   166  163  172 1   
   167  164  165 2   
   168  164  177 1   
   169  166  167 1   
   170  166  173 1   
   171  166  174 1   
   172  167  168 1   
   173  167  175 1   
   174  167  176 1   
   175  168  169 1   
   176  168  170 1   
   177  177  178 1   
   178  177  182 1   
   179  178  179 1   
   180  178  180 1   
   181  178  181 1   
   182  184  185 1   
   183  184  186 1   
   184  187  188 1   
   185  187  189 1   
@<TRIPOS>SUBSTRUCTURE
     1 MOL         1 TEMP              0 ****  ****    0 ROOT
