@<TRIPOS>MOLECULE
MOL
  181   177     1     0     0
SMALL
resp


@<TRIPOS>ATOM
      1 C1         -0.4460    3.4540    5.7330 c3        1 MOL     -0.286100
      2 C2         -0.5310    3.1860    4.2030 c         1 MOL      0.694548
      3 O1          0.1520    3.8740    3.4050 o         1 MOL     -0.563784
      4 H1         -1.0870    2.7470    6.2610 hc        1 MOL      0.074795
      5 H2          0.5830    3.3310    6.0680 hc        1 MOL      0.074795
      6 H3         -0.7790    4.4710    5.9440 hc        1 MOL      0.074795
      7 N1         -1.3760    2.1910    3.7880 n         1 MOL     -0.665227
      8 C3         -1.8650    1.9800    2.4170 c3        1 MOL      0.205889
      9 C4         -2.5450    3.2960    1.9210 c         1 MOL      0.668666
     10 O2         -3.4430    3.8200    2.5500 o         1 MOL     -0.617376
     11 C5         -2.8590    0.7700    2.5010 c3        1 MOL     -0.364630
     12 C6         -3.3650    0.2640    1.1350 c         1 MOL      0.732938
     13 O3         -4.1360   -0.6920    1.0150 o         1 MOL     -0.622613
     14 O4         -2.8890    0.7270    0.0290 o         1 MOL     -0.622613
     15 H4         -1.8190    1.6790    4.5300 hn        1 MOL      0.339646
     16 H5         -1.0830    1.7530    1.6880 h1        1 MOL     -0.002025
     17 H6         -3.7270    1.1580    3.0310 hc        1 MOL      0.077658
     18 H7         -2.3340   -0.0500    2.9840 hc        1 MOL      0.077658
     19 N2         -2.1340    3.7830    0.7410 n         1 MOL     -0.413138
     20 C7         -2.5880    5.0520    0.1250 c3        1 MOL      0.116933
     21 C8         -3.7870    4.8630   -0.8090 c         1 MOL      0.376896
     22 O5         -4.6270    5.7850   -0.8880 o         1 MOL     -0.555613
     23 C9         -1.3820    5.6130   -0.7270 c3        1 MOL     -0.308866
     24 H8         -1.3500    3.2970    0.3230 hn        1 MOL      0.279871
     25 H9         -2.8110    5.8040    0.8780 h1        1 MOL      0.077663
     26 H10        -0.9070    4.7820   -1.2570 hc        1 MOL      0.092550
     27 H11        -1.6910    6.3490   -1.4670 hc        1 MOL      0.092550
     28 H12        -0.6310    6.0430   -0.0670 hc        1 MOL      0.092550
     29 N3         -3.9900    3.6270   -1.3320 n         1 MOL     -0.050473
     30 C10        -5.2260    3.3350   -2.0940 c3        1 MOL     -0.250932
     31 C11        -6.4140    2.9710   -1.2110 c         1 MOL      0.545782
     32 O6         -7.5260    3.0240   -1.7150 o         1 MOL     -0.535821
     33 C12        -4.9920    2.1580   -3.0450 c3        1 MOL      0.061452
     34 C13        -3.6020    2.1510   -3.6070 c         1 MOL      0.715987
     35 O7         -3.5030    2.8690   -4.5680 o         1 MOL     -0.713965
     36 O8         -2.6790    1.4680   -3.1940 o         1 MOL     -0.713965
     37 H13        -3.3660    2.8970   -1.0430 hn        1 MOL      0.111689
     38 H14        -5.4780    4.2330   -2.6470 h1        1 MOL      0.150018
     39 H15        -5.7750    2.2370   -3.8100 hc        1 MOL     -0.037117
     40 H16        -5.1300    1.2440   -2.4670 hc        1 MOL     -0.037117
     41 N4         -6.1810    2.7300    0.0710 n         1 MOL     -0.250655
     42 C14        -7.1830    2.4060    1.1020 c3        1 MOL     -0.110305
     43 C15        -7.8750    1.0460    0.8030 c         1 MOL      0.362858
     44 O9         -9.1310    1.0270    0.7260 o         1 MOL     -0.518182
     45 H17        -5.1920    2.6910    0.2780 hn        1 MOL      0.159537
     46 H18        -7.9310    3.2040    1.1310 h1        1 MOL      0.101553
     47 H19        -6.7740    2.3610    2.1130 h1        1 MOL      0.101553
     48 N5         -7.0320    0.0190    0.5070 n         1 MOL     -0.221315
     49 C16        -7.4980   -1.2540    0.1240 c3        1 MOL      0.052717
     50 C17        -7.0170   -2.4420    1.0110 c         1 MOL      0.366553
     51 O10        -7.1780   -3.6070    0.5670 o         1 MOL     -0.451921
     52 C18        -7.1900   -1.4270   -1.3480 c3        1 MOL      0.169022
     53 C19        -8.3370   -1.9310   -2.2550 c         1 MOL      0.523812
     54 N6         -8.8470   -1.1650   -3.2010 n         1 MOL     -0.743297
     55 O11        -8.7310   -3.0790   -2.0760 o         1 MOL     -0.554837
     56 H20        -6.0390    0.1420    0.6690 hn        1 MOL      0.185220
     57 H21        -8.5810   -1.3610    0.1310 h1        1 MOL      0.083890
     58 H22        -6.2950   -2.0500   -1.4080 hc        1 MOL     -0.064112
     59 H23        -6.9270   -0.4770   -1.8180 hc        1 MOL     -0.064112
     60 H24        -8.3980   -0.2710   -3.3750 hn        1 MOL      0.360444
     61 H25        -9.6210   -1.6080   -3.6610 hn        1 MOL      0.360444
     62 N7         -6.4160   -2.1500    2.1730 n         1 MOL     -0.374409
     63 C20        -5.8060   -3.2200    3.0090 c3        1 MOL      0.035350
     64 C21        -4.4750   -3.9000    2.6590 c         1 MOL      0.458020
     65 O12        -4.2290   -4.9940    3.1840 o         1 MOL     -0.555397
     66 H26        -6.3700   -1.2100    2.5440 hn        1 MOL      0.237649
     67 H27        -6.5590   -4.0000    3.0590 h1        1 MOL      0.063415
     68 H28        -5.8030   -3.0130    4.0750 h1        1 MOL      0.063415
     69 N8         -3.6000   -3.2710    1.8390 n         1 MOL     -0.344418
     70 C22        -2.4260   -3.9110    1.3240 c3        1 MOL      0.043871
     71 C23        -1.2640   -2.9800    1.0150 c         1 MOL      0.365955
     72 O13        -1.4790   -1.9800    0.2910 o         1 MOL     -0.476475
     73 C24        -2.6760   -4.6840    0.0160 c3        1 MOL      0.440117
     74 C25        -2.8090   -6.2250    0.2450 c3        1 MOL     -0.366247
     75 O14        -3.9120   -4.2720   -0.6000 oh        1 MOL     -0.572478
     76 H29        -3.8150   -2.3170    1.5760 hn        1 MOL      0.246592
     77 H30        -2.0570   -4.6240    2.0630 h1        1 MOL      0.032918
     78 H31        -1.8410   -4.4620   -0.6430 h1        1 MOL     -0.057602
     79 H32        -3.8800   -3.3200   -0.6880 ho        1 MOL      0.316173
     80 H33        -3.1490   -6.7580   -0.6450 hc        1 MOL      0.092222
     81 H34        -1.8700   -6.6350    0.6140 hc        1 MOL      0.092222
     82 H35        -3.5180   -6.3080    1.0690 hc        1 MOL      0.092222
     83 N9         -0.0690   -3.2620    1.5060 n         1 MOL     -0.309448
     84 C26         1.0920   -2.3730    1.2950 c3        1 MOL     -0.046294
     85 C27         2.1560   -2.9410    0.3040 c         1 MOL      0.369476
     86 O15         2.6150   -4.0450    0.4830 o         1 MOL     -0.551562
     87 C28         1.6200   -1.8470    2.6160 c3        1 MOL      0.344014
     88 C29         2.4420   -2.8660    3.3700 c3        1 MOL     -0.254562
     89 C30         0.5800   -1.1570    3.5510 c3        1 MOL     -0.190976
     90 C31         3.0870   -2.3240    4.7390 c3        1 MOL     -0.023616
     91 H36         0.1020   -4.1810    1.8870 hn        1 MOL      0.262562
     92 H37         0.6650   -1.4930    0.8160 h1        1 MOL      0.034797
     93 H38         2.3060   -1.0630    2.3040 hc        1 MOL     -0.161348
     94 H39         3.3100   -3.2540    2.8400 hc        1 MOL      0.064233
     95 H40         1.8280   -3.7250    3.6410 hc        1 MOL      0.064233
     96 H41         0.9890   -0.6470    4.4180 hc        1 MOL      0.037093
     97 H42        -0.0260   -0.4210    3.0360 hc        1 MOL      0.037093
     98 H43        -0.1000   -1.9770    3.8100 hc        1 MOL      0.037093
     99 H44         3.8890   -2.9770    5.0800 hc        1 MOL      0.007650
    100 H45         3.5240   -1.3570    4.5210 hc        1 MOL      0.007650
    101 H46         2.3120   -2.2940    5.5120 hc        1 MOL      0.007650
    102 N10         2.5620   -2.0750   -0.6010 n         1 MOL     -0.133585
    103 C32         3.7680   -2.2450   -1.4370 c3        1 MOL      0.036152
    104 C33         4.9830   -1.5780   -0.7430 c         1 MOL      0.580112
    105 O16         4.8740   -0.8300    0.2250 o         1 MOL     -0.483761
    106 C34         3.5420   -1.4750   -2.8140 c3        1 MOL     -0.292919
    107 C35         2.4690   -2.1050   -3.6020 c         1 MOL      0.749148
    108 O17         2.0450   -3.3090   -3.4340 o         1 MOL     -0.683239
    109 O18         2.0250   -1.3790   -4.5370 o         1 MOL     -0.683239
    110 H47         2.0400   -1.2090   -0.5860 hn        1 MOL      0.234654
    111 H48         4.1260   -3.2660   -1.6140 h1        1 MOL      0.066001
    112 H49         4.4270   -1.5250   -3.4480 hc        1 MOL      0.056253
    113 H50         3.3440   -0.4250   -2.5860 hc        1 MOL      0.056253
    114 N11         6.1800   -1.7480   -1.2750 n         1 MOL     -0.653592
    115 C36         7.4490   -1.0950   -0.8170 c3        1 MOL      0.340932
    116 C37         7.4640    0.4040   -0.4160 c         1 MOL      0.337295
    117 O19         8.0790    0.6950    0.6410 o         1 MOL     -0.503082
    118 C38         8.5770   -1.3710   -1.9020 c3        1 MOL     -0.177723
    119 C39        10.0430   -1.2260   -1.5100 ca        1 MOL      0.027910
    120 C40        10.7010   -2.3390   -0.9090 ca        1 MOL     -0.120260
    121 C41        10.6970    0.0270   -1.4890 ca        1 MOL     -0.120260
    122 C42        11.9490   -2.2500   -0.3530 ca        1 MOL     -0.132924
    123 C43        11.9440    0.1530   -0.8300 ca        1 MOL     -0.132924
    124 C44        12.5250   -1.0120   -0.2990 ca        1 MOL     -0.085431
    125 H51         6.1670   -2.1950   -2.1720 hn        1 MOL      0.310624
    126 H52         7.7760   -1.6480    0.0700 h1        1 MOL      0.047145
    127 H53         8.4290   -0.7180   -2.7640 hc        1 MOL      0.063209
    128 H54         8.5250   -2.3780   -2.3070 hc        1 MOL      0.063209
    129 H55        10.2650   -3.3190   -0.8210 ha        1 MOL      0.105801
    130 H56        10.2360    0.8660   -1.9660 ha        1 MOL      0.105801
    131 H57        12.4010   -3.1560    0.0390 ha        1 MOL      0.119465
    132 H58        12.5020    1.0440   -0.5810 ha        1 MOL      0.119465
    133 H59        13.4850   -0.9290    0.2030 ha        1 MOL      0.084015
    134 N12         6.9390    1.4190   -1.1800 n         1 MOL     -0.068733
    135 C45         6.8830    2.8160   -0.7060 c3        1 MOL      0.066913
    136 C46         5.8990    3.0430    0.4520 c         1 MOL      0.314933
    137 O20         6.0610    3.9120    1.2820 o         1 MOL     -0.496224
    138 C47         6.6030    3.6400   -1.9590 c3        1 MOL     -0.296642
    139 C48         5.6870    2.6680   -2.7570 c3        1 MOL      0.141976
    140 C49         6.3100    1.2710   -2.5110 c3        1 MOL     -0.136430
    141 H60         7.8580    3.1690   -0.3730 h1        1 MOL      0.065650
    142 H61         6.0380    4.5500   -1.7250 hc        1 MOL      0.108955
    143 H62         7.4830    3.7760   -2.5770 hc        1 MOL      0.108955
    144 H63         4.6780    2.5580   -2.3570 hc        1 MOL     -0.009754
    145 H64         5.6040    2.9500   -3.8100 hc        1 MOL     -0.009754
    146 H65         5.5080    0.5350   -2.3740 h1        1 MOL      0.057941
    147 H66         7.0710    1.0780   -3.2740 h1        1 MOL      0.057941
    148 N13         4.8720    2.1630    0.5990 n         1 MOL     -0.096152
    149 C50         3.8590    2.0660    1.7420 c3        1 MOL     -0.388097
    150 C51         4.4330    1.3580    2.9870 c         1 MOL      0.576436
    151 O21         4.1530    1.7640    4.1110 o         1 MOL     -0.547049
    152 C52         2.5340    1.4100    1.2950 c3        1 MOL      0.019103
    153 C53         1.7270    2.2630    0.3400 c3        1 MOL     -0.086515
    154 C54         0.7470    1.4230   -0.4320 c         1 MOL      0.621876
    155 O22        -0.3070    1.9520   -0.8000 o         1 MOL     -0.715060
    156 O23         1.0040    0.2460   -0.6930 o         1 MOL     -0.715060
    157 H67         4.8600    1.4750   -0.1390 hn        1 MOL      0.283960
    158 H68         3.6070    3.0930    2.0230 h1        1 MOL      0.170372
    159 H69         1.9100    1.2610    2.1700 hc        1 MOL      0.113312
    160 H70         2.7880    0.4610    0.8410 hc        1 MOL      0.113312
    161 H71         2.4000    2.8030   -0.3330 hc        1 MOL      0.024781
    162 H72         1.2250    3.0520    0.8930 hc        1 MOL      0.024781
    163 N14         5.4260    0.4410    2.7560 n         1 MOL     -0.103916
    164 C55         6.1360   -0.1930    3.8110 c3        1 MOL     -0.228250
    165 H73         5.7280   -1.1910    3.9750 h1        1 MOL      0.080810
    166 H74         7.1900   -0.2720    3.5440 h1        1 MOL      0.080810
    167 H75         6.0340    0.3940    4.7230 h1        1 MOL      0.080810
    168 H76         5.7660    0.2680    1.8170 hn        1 MOL      0.131453
    169 Ca1        -1.3710   -0.3030   -1.7150 Ca        1 MOL      1.631277
    170 O24         0.1100    0.3320   -3.8460 oh        1 MOL     -0.758733
    171 H77         0.9220   -0.0560   -4.1740 ho        1 MOL      0.370504
    172 H78         0.2360    1.2760   -3.9640 ho        1 MOL      0.370504
    173 O25        -3.7730   -1.5170   -1.4680 oh        1 MOL     -0.758733
    174 H79        -4.4430   -1.2590   -2.1040 ho        1 MOL      0.370504
    175 H80        -4.0290   -1.0830   -0.6580 ho        1 MOL      0.370504
    176 O26        -2.4300   -1.4640   -4.0650 oh        1 MOL     -0.758733
    177 H81        -3.3200   -1.2790   -4.3540 ho        1 MOL      0.370504
    178 H82        -2.3810   -2.4180   -4.0370 ho        1 MOL      0.370504
    179 O27        -0.2250   -2.5770   -2.3460 oh        1 MOL     -0.758733
    180 H83         0.6890   -2.6750   -2.6200 ho        1 MOL      0.370504
    181 H84        -0.6770   -3.3190   -2.7600 ho        1 MOL      0.370504
@<TRIPOS>BOND
     1    1    2 1   
     2    1    4 1   
     3    1    5 1   
     4    1    6 1   
     5    2    3 2   
     6    2    7 1   
     7    7    8 1   
     8    7   15 1   
     9    8    9 1   
    10    8   11 1   
    11    8   16 1   
    12    9   10 2   
    13    9   19 1   
    14   11   12 1   
    15   11   17 1   
    16   11   18 1   
    17   12   13 1   
    18   12   14 1   
    19   19   20 1   
    20   19   24 1   
    21   20   21 1   
    22   20   23 1   
    23   20   25 1   
    24   21   22 2   
    25   21   29 1   
    26   23   26 1   
    27   23   27 1   
    28   23   28 1   
    29   29   30 1   
    30   29   37 1   
    31   30   31 1   
    32   30   33 1   
    33   30   38 1   
    34   31   32 2   
    35   31   41 1   
    36   33   34 1   
    37   33   39 1   
    38   33   40 1   
    39   34   35 1   
    40   34   36 1   
    41   41   42 1   
    42   41   45 1   
    43   42   43 1   
    44   42   46 1   
    45   42   47 1   
    46   43   44 2   
    47   43   48 1   
    48   48   49 1   
    49   48   56 1   
    50   49   50 1   
    51   49   52 1   
    52   49   57 1   
    53   50   51 2   
    54   50   62 1   
    55   52   53 1   
    56   52   58 1   
    57   52   59 1   
    58   53   54 1   
    59   53   55 2   
    60   54   60 1   
    61   54   61 1   
    62   62   63 1   
    63   62   66 1   
    64   63   64 1   
    65   63   67 1   
    66   63   68 1   
    67   64   65 2   
    68   64   69 1   
    69   69   70 1   
    70   69   76 1   
    71   70   71 1   
    72   70   73 1   
    73   70   77 1   
    74   71   72 2   
    75   71   83 1   
    76   73   74 1   
    77   73   75 1   
    78   73   78 1   
    79   74   80 1   
    80   74   81 1   
    81   74   82 1   
    82   75   79 1   
    83   83   84 1   
    84   83   91 1   
    85   84   85 1   
    86   84   87 1   
    87   84   92 1   
    88   85   86 2   
    89   85  102 1   
    90   87   88 1   
    91   87   89 1   
    92   87   93 1   
    93   88   90 1   
    94   88   94 1   
    95   88   95 1   
    96   89   96 1   
    97   89   97 1   
    98   89   98 1   
    99   90   99 1   
   100   90  100 1   
   101   90  101 1   
   102  102  103 1   
   103  102  110 1   
   104  103  104 1   
   105  103  106 1   
   106  103  111 1   
   107  104  105 2   
   108  104  114 1   
   109  106  107 1   
   110  106  112 1   
   111  106  113 1   
   112  107  108 1   
   113  107  109 1   
   114  114  115 1   
   115  114  125 1   
   116  115  116 1   
   117  115  118 1   
   118  115  126 1   
   119  116  117 2   
   120  116  134 1   
   121  118  119 1   
   122  118  127 1   
   123  118  128 1   
   124  119  120 ar  
   125  119  121 ar  
   126  120  122 ar  
   127  120  129 1   
   128  121  123 ar  
   129  121  130 1   
   130  122  124 ar  
   131  122  131 1   
   132  123  124 ar  
   133  123  132 1   
   134  124  133 1   
   135  134  135 1   
   136  134  140 1   
   137  135  136 1   
   138  135  138 1   
   139  135  141 1   
   140  136  137 2   
   141  136  148 1   
   142  138  139 1   
   143  138  142 1   
   144  138  143 1   
   145  139  140 1   
   146  139  144 1   
   147  139  145 1   
   148  140  146 1   
   149  140  147 1   
   150  148  149 1   
   151  148  157 1   
   152  149  150 1   
   153  149  152 1   
   154  149  158 1   
   155  150  151 2   
   156  150  163 1   
   157  152  153 1   
   158  152  159 1   
   159  152  160 1   
   160  153  154 1   
   161  153  161 1   
   162  153  162 1   
   163  154  155 1   
   164  154  156 1   
   165  163  164 1   
   166  163  168 1   
   167  164  165 1   
   168  164  166 1   
   169  164  167 1   
   170  170  171 1   
   171  170  172 1   
   172  173  174 1   
   173  173  175 1   
   174  176  177 1   
   175  176  178 1   
   176  179  180 1   
   177  179  181 1   
@<TRIPOS>SUBSTRUCTURE
     1 MOL         1 TEMP              0 ****  ****    0 ROOT
