@<TRIPOS>MOLECULE
MOL
  175   173     1     0     0
SMALL
resp


@<TRIPOS>ATOM
      1 C1          0.2460    4.1840    5.1140 c3        1 MOL     -0.365148
      2 C2         -0.4960    4.1150    3.8020 c         1 MOL      0.813863
      3 O1          0.0670    4.2350    2.7280 o         1 MOL     -0.585195
      4 H1          1.1100    4.8400    5.0080 hc        1 MOL      0.082376
      5 H2         -0.4150    4.5780    5.8870 hc        1 MOL      0.082376
      6 H3          0.5800    3.1860    5.3960 hc        1 MOL      0.082376
      7 N1         -1.8360    3.9460    3.8080 n         1 MOL     -0.727998
      8 C3         -2.5790    3.7090    2.6440 c3        1 MOL      0.254043
      9 C4         -2.8870    4.9770    1.8140 c         1 MOL      0.583362
     10 O2         -3.2970    6.0040    2.3370 o         1 MOL     -0.545281
     11 C5         -3.8570    3.0320    3.1190 c3        1 MOL     -0.229264
     12 C6         -4.7840    2.6750    1.9730 c         1 MOL      0.717370
     13 O3         -4.3340    2.0350    1.0230 o         1 MOL     -0.685915
     14 O4         -5.9740    3.0410    2.0310 o         1 MOL     -0.685915
     15 H4         -2.3150    3.7290    4.6690 hn        1 MOL      0.333244
     16 H5         -2.0950    2.9510    2.0250 h1        1 MOL      0.001440
     17 H6         -4.3150    3.7840    3.7700 hc        1 MOL      0.028075
     18 H7         -3.7000    2.1980    3.8090 hc        1 MOL      0.028075
     19 N2         -2.9290    4.7950    0.4600 n         1 MOL     -0.537072
     20 C7         -3.5600    5.7410   -0.5150 c3        1 MOL      0.276202
     21 C8         -4.1960    5.1060   -1.8010 c         1 MOL      0.393683
     22 O5         -4.1410    5.6770   -2.8820 o         1 MOL     -0.530108
     23 C9         -2.5710    6.9540   -0.8140 c3        1 MOL     -0.228224
     24 H8         -2.5060    3.9740    0.0360 hn        1 MOL      0.368738
     25 H9         -4.3170    6.2130    0.1000 h1        1 MOL      0.020158
     26 H10        -3.0040    7.7080   -1.4690 hc        1 MOL      0.049806
     27 H11        -2.3670    7.4550    0.1340 hc        1 MOL      0.049806
     28 H12        -1.6030    6.6080   -1.1900 hc        1 MOL      0.049806
     29 N3         -4.6740    3.8770   -1.6630 n         1 MOL     -0.357000
     30 C10        -5.2550    3.1360   -2.8150 c3        1 MOL      0.127455
     31 C11        -6.4510    2.1770   -2.4860 c         1 MOL      0.323209
     32 O6         -7.2110    1.8280   -3.4060 o         1 MOL     -0.543740
     33 C12        -4.1130    2.2080   -3.4340 c3        1 MOL     -0.001844
     34 C13        -3.2730    1.4180   -2.3930 c         1 MOL      0.563768
     35 O7         -2.0250    1.2900   -2.4890 o         1 MOL     -0.676365
     36 O8         -3.8980    0.8970   -1.4530 o         1 MOL     -0.676365
     37 H13        -4.6200    3.3970   -0.7710 hn        1 MOL      0.221590
     38 H14        -5.5200    3.8710   -3.5630 h1        1 MOL      0.064395
     39 H15        -3.5460    2.8050   -4.1550 hc        1 MOL      0.004417
     40 H16        -4.6440    1.5590   -4.1240 hc        1 MOL      0.004417
     41 N4         -6.6000    1.7780   -1.2070 n         1 MOL     -0.146690
     42 C14        -7.6930    0.8890   -0.7110 c3        1 MOL     -0.274961
     43 C15        -7.4830   -0.5860   -0.9010 c         1 MOL      0.515318
     44 O9         -8.4240   -1.3020   -0.6100 o         1 MOL     -0.598489
     45 H17        -5.9330    2.0890   -0.5190 hn        1 MOL      0.116631
     46 H18        -8.6150    1.2280   -1.1830 h1        1 MOL      0.148359
     47 H19        -7.8030    1.0740    0.3560 h1        1 MOL      0.148359
     48 N5         -6.3310   -1.0490   -1.3940 n         1 MOL     -0.208437
     49 C16        -6.1560   -2.3690   -2.0080 c3        1 MOL     -0.096003
     50 C17        -5.9080   -3.5060   -0.9810 c         1 MOL      0.354181
     51 O10        -5.6430   -4.6510   -1.4480 o         1 MOL     -0.497415
     52 C18        -4.9880   -2.3630   -3.0470 c3        1 MOL      0.042219
     53 C19        -3.5610   -2.2830   -2.5520 c         1 MOL      0.520272
     54 N6         -2.6630   -1.9050   -3.4650 n         1 MOL     -0.638538
     55 O11        -3.1810   -2.4660   -1.3650 o         1 MOL     -0.433987
     56 H20        -5.5120   -0.4660   -1.4850 hn        1 MOL      0.239638
     57 H21        -7.0160   -2.6050   -2.6270 h1        1 MOL      0.130331
     58 H22        -5.1720   -1.5050   -3.6980 hc        1 MOL      0.005311
     59 H23        -5.0690   -3.2060   -3.7350 hc        1 MOL      0.005311
     60 H24        -2.9490   -1.7430   -4.4200 hn        1 MOL      0.328062
     61 H25        -1.6620   -1.9110   -3.2910 hn        1 MOL      0.328062
     62 N7         -6.0380   -3.2540    0.3420 n         1 MOL     -0.129535
     63 C20        -6.0550   -4.3590    1.3960 c3        1 MOL     -0.518103
     64 C21        -4.6660   -4.8270    1.8420 c         1 MOL      0.716268
     65 O12        -4.5530   -5.7280    2.6960 o         1 MOL     -0.584240
     66 H26        -6.1560   -2.2950    0.6290 hn        1 MOL      0.228805
     67 H27        -6.6800   -5.1460    0.9920 h1        1 MOL      0.198010
     68 H28        -6.3250   -3.7620    2.2780 h1        1 MOL      0.198010
     69 N8         -3.6030   -4.2390    1.2710 n         1 MOL     -0.467257
     70 C22        -2.2320   -4.7640    1.2800 c3        1 MOL     -0.165128
     71 C23        -1.1950   -3.6910    1.4350 c         1 MOL      0.765725
     72 O13        -1.4890   -2.5960    0.9580 o         1 MOL     -0.703490
     73 C24        -1.8580   -5.5660    0.0440 c3        1 MOL      0.390309
     74 C25        -2.5040   -6.9360   -0.0340 c3        1 MOL     -0.699235
     75 O14        -2.3920   -4.9860   -1.1210 oh        1 MOL     -0.509805
     76 H29        -3.6650   -3.3750    0.7440 hn        1 MOL      0.336869
     77 H30        -2.1330   -5.3940    2.1560 h1        1 MOL      0.098243
     78 H31        -0.7900   -5.6450   -0.1280 h1        1 MOL      0.024559
     79 H32        -2.4060   -4.0330   -0.9950 ho        1 MOL      0.256600
     80 H33        -3.5810   -6.7550   -0.0400 hc        1 MOL      0.187913
     81 H34        -2.1360   -7.4210   -0.9290 hc        1 MOL      0.187913
     82 H35        -2.2510   -7.4200    0.9100 hc        1 MOL      0.187913
     83 N9         -0.0560   -3.9240    2.0840 n         1 MOL     -0.611425
     84 C26         1.0440   -2.9510    1.9800 c3        1 MOL      0.135141
     85 C27         1.7830   -3.1750    0.6940 c         1 MOL      0.487445
     86 O15         2.0810   -4.3070    0.3260 o         1 MOL     -0.603109
     87 C28         2.0650   -3.1640    3.1230 c3        1 MOL      0.194296
     88 C29         1.3740   -2.7710    4.4850 c3        1 MOL      0.119966
     89 C30         3.3000   -2.3140    2.8890 c3        1 MOL     -0.311437
     90 C31         1.9500   -3.5330    5.6980 c3        1 MOL     -0.218588
     91 H36         0.2160   -4.8790    2.2850 hn        1 MOL      0.279808
     92 H37         0.6880   -1.9280    2.1100 h1        1 MOL      0.100814
     93 H38         2.3830   -4.2060    3.1750 hc        1 MOL     -0.025693
     94 H39         0.3260   -3.0490    4.3690 hc        1 MOL     -0.028184
     95 H40         1.2790   -1.6950    4.6150 hc        1 MOL     -0.028184
     96 H41         3.9700   -2.3160    3.7410 hc        1 MOL      0.054005
     97 H42         3.8310   -2.4810    1.9550 hc        1 MOL      0.054005
     98 H43         2.8500   -1.3240    2.8100 hc        1 MOL      0.054005
     99 H44         3.0200   -3.3600    5.7050 hc        1 MOL      0.042722
    100 H45         1.4840   -3.1600    6.6060 hc        1 MOL      0.042722
    101 H46         1.6850   -4.5900    5.6250 hc        1 MOL      0.042722
    102 N10         2.0580   -2.1040   -0.0830 n         1 MOL     -0.262750
    103 C32         2.9340   -2.0000   -1.2940 c3        1 MOL      0.306891
    104 C33         4.2990   -1.4060   -0.9990 c         1 MOL      0.140372
    105 O16         4.4680   -0.7800    0.0550 o         1 MOL     -0.130307
    106 C34         2.3050   -1.2010   -2.4750 c3        1 MOL     -0.268762
    107 C35         0.7560   -1.4890   -2.6300 c         1 MOL      0.575710
    108 O17        -0.0900   -1.3390   -1.6650 o         1 MOL     -0.629379
    109 O18         0.2820   -1.7310   -3.8070 o         1 MOL     -0.629379
    110 H47         1.7310   -1.2080    0.2440 hn        1 MOL      0.116403
    111 H48         3.1350   -2.9920   -1.6920 h1        1 MOL      0.030012
    112 H49         2.8150   -1.5700   -3.3590 hc        1 MOL      0.078355
    113 H50         2.5240   -0.1540   -2.2830 hc        1 MOL      0.078355
    114 N11         5.3330   -1.6220   -1.8490 n         1 MOL     -0.551054
    115 C36         6.6750   -1.2270   -1.4570 c3        1 MOL      0.395035
    116 C37         6.8780    0.3350   -1.0730 c         1 MOL      0.339783
    117 O19         7.3430    0.6390    0.0420 o         1 MOL     -0.497260
    118 C38         7.7360   -1.7240   -2.4500 c3        1 MOL     -0.395172
    119 C39         9.1030   -1.2670   -2.0690 ca        1 MOL      0.242053
    120 C40         9.8140   -2.0300   -1.1640 ca        1 MOL     -0.231818
    121 C41         9.7410   -0.1710   -2.6970 ca        1 MOL     -0.231818
    122 C42        11.0800   -1.6790   -0.8010 ca        1 MOL     -0.097049
    123 C43        11.0390    0.1900   -2.3350 ca        1 MOL     -0.097049
    124 C44        11.7350   -0.5250   -1.3590 ca        1 MOL     -0.100896
    125 H51         5.1570   -2.1190   -2.7080 hn        1 MOL      0.330971
    126 H52         6.9190   -1.7670   -0.5410 h1        1 MOL      0.043718
    127 H53         7.4240   -1.4420   -3.4490 hc        1 MOL      0.099427
    128 H54         7.7040   -2.8130   -2.4240 hc        1 MOL      0.099427
    129 H55         9.4820   -3.0060   -0.8680 ha        1 MOL      0.136611
    130 H56         9.2520    0.4990   -3.3870 ha        1 MOL      0.136611
    131 H57        11.6560   -2.2360   -0.0750 ha        1 MOL      0.107821
    132 H58        11.5370    1.0360   -2.7880 ha        1 MOL      0.107821
    133 H59        12.7760   -0.2860   -1.1920 ha        1 MOL      0.096374
    134 N12         6.3130    1.3260   -1.8470 n         1 MOL     -0.139663
    135 C45         6.2540    2.7640   -1.5210 c3        1 MOL      0.077945
    136 C46         5.7070    3.0740   -0.1180 c         1 MOL      0.259543
    137 O20         5.9090    4.2170    0.2900 o         1 MOL     -0.516179
    138 C47         5.3390    3.2660   -2.5920 c3        1 MOL      0.026649
    139 C48         5.8200    2.4720   -3.8310 c3        1 MOL     -0.176991
    140 C49         5.8970    1.0700   -3.1870 c3        1 MOL      0.009839
    141 H60         7.2250    3.2510   -1.5540 h1        1 MOL      0.066248
    142 H61         4.3110    3.0590   -2.2900 hc        1 MOL      0.034445
    143 H62         5.4780    4.3480   -2.6470 hc        1 MOL      0.034445
    144 H63         5.0920    2.4990   -4.6400 hc        1 MOL      0.063047
    145 H64         6.8240    2.8390   -4.0470 hc        1 MOL      0.063047
    146 H65         4.8980    0.6360   -3.1640 h1        1 MOL      0.031890
    147 H66         6.5620    0.3540   -3.6700 h1        1 MOL      0.031890
    148 N13         4.9840    2.1700    0.5850 n         1 MOL      0.084833
    149 C50         4.3490    2.2450    1.8400 c3        1 MOL     -0.088082
    150 C51         5.1310    1.4570    2.8750 c         1 MOL      0.395530
    151 O21         5.2980    1.8900    4.0500 o         1 MOL     -0.562972
    152 C52         2.9310    1.5730    1.8330 c3        1 MOL     -0.117841
    153 C53         1.9310    2.1060    0.7730 c3        1 MOL     -0.113841
    154 C54         0.5840    1.3690    0.7220 c         1 MOL      0.787078
    155 O22        -0.4320    2.0510    0.2780 o         1 MOL     -0.782112
    156 O23         0.4210    0.1970    1.1280 o         1 MOL     -0.782112
    157 H67         4.8960    1.2930    0.0950 hn        1 MOL      0.035542
    158 H68         4.2990    3.2760    2.1640 h1        1 MOL      0.110093
    159 H69         2.4640    1.7010    2.8090 hc        1 MOL      0.063322
    160 H70         2.9500    0.4880    1.7030 hc        1 MOL      0.063322
    161 H71         2.4250    2.1090   -0.2010 hc        1 MOL      0.046636
    162 H72         1.6790    3.1110    1.1080 hc        1 MOL      0.046636
    163 N14         5.7720    0.3540    2.4660 n         1 MOL      0.023687
    164 C55         6.7910   -0.3030    3.2370 c3        1 MOL     -0.251767
    165 H73         7.7550    0.1630    3.0360 h1        1 MOL      0.087409
    166 H74         6.5590   -0.2130    4.2980 h1        1 MOL      0.087409
    167 H75         6.8330   -1.3570    2.9620 h1        1 MOL      0.087409
    168 H76         5.5660   -0.0310    1.5520 hn        1 MOL     -0.011927
    169 Ca1        -1.8980   -0.2470   -0.2410 Ca        1 MOL      1.728278
    170 O24        -1.8380    0.2210    2.4520 oh        1 MOL     -0.815461
    171 H77        -0.8850    0.1000    2.3600 ho        1 MOL      0.392914
    172 H78        -1.9410    0.5890    3.3380 ho        1 MOL      0.392914
    173 O25        -4.2190   -0.7640    0.8110 oh        1 MOL     -0.815461
    174 H79        -4.9080   -0.8880    1.4630 ho        1 MOL      0.392914
    175 H80        -4.3810    0.1040    0.4540 ho        1 MOL      0.392914
@<TRIPOS>BOND
     1    1    2 1   
     2    1    4 1   
     3    1    5 1   
     4    1    6 1   
     5    2    3 2   
     6    2    7 1   
     7    7    8 1   
     8    7   15 1   
     9    8    9 1   
    10    8   11 1   
    11    8   16 1   
    12    9   10 2   
    13    9   19 1   
    14   11   12 1   
    15   11   17 1   
    16   11   18 1   
    17   12   13 1   
    18   12   14 1   
    19   19   20 1   
    20   19   24 1   
    21   20   21 1   
    22   20   23 1   
    23   20   25 1   
    24   21   22 2   
    25   21   29 1   
    26   23   26 1   
    27   23   27 1   
    28   23   28 1   
    29   29   30 1   
    30   29   37 1   
    31   30   31 1   
    32   30   33 1   
    33   30   38 1   
    34   31   32 2   
    35   31   41 1   
    36   33   34 1   
    37   33   39 1   
    38   33   40 1   
    39   34   35 1   
    40   34   36 1   
    41   41   42 1   
    42   41   45 1   
    43   42   43 1   
    44   42   46 1   
    45   42   47 1   
    46   43   44 2   
    47   43   48 1   
    48   48   49 1   
    49   48   56 1   
    50   49   50 1   
    51   49   52 1   
    52   49   57 1   
    53   50   51 2   
    54   50   62 1   
    55   52   53 1   
    56   52   58 1   
    57   52   59 1   
    58   53   54 1   
    59   53   55 2   
    60   54   60 1   
    61   54   61 1   
    62   62   63 1   
    63   62   66 1   
    64   63   64 1   
    65   63   67 1   
    66   63   68 1   
    67   64   65 2   
    68   64   69 1   
    69   69   70 1   
    70   69   76 1   
    71   70   71 1   
    72   70   73 1   
    73   70   77 1   
    74   71   72 2   
    75   71   83 1   
    76   73   74 1   
    77   73   75 1   
    78   73   78 1   
    79   74   80 1   
    80   74   81 1   
    81   74   82 1   
    82   75   79 1   
    83   83   84 1   
    84   83   91 1   
    85   84   85 1   
    86   84   87 1   
    87   84   92 1   
    88   85   86 2   
    89   85  102 1   
    90   87   88 1   
    91   87   89 1   
    92   87   93 1   
    93   88   90 1   
    94   88   94 1   
    95   88   95 1   
    96   89   96 1   
    97   89   97 1   
    98   89   98 1   
    99   90   99 1   
   100   90  100 1   
   101   90  101 1   
   102  102  103 1   
   103  102  110 1   
   104  103  104 1   
   105  103  106 1   
   106  103  111 1   
   107  104  105 2   
   108  104  114 1   
   109  106  107 1   
   110  106  112 1   
   111  106  113 1   
   112  107  108 1   
   113  107  109 1   
   114  114  115 1   
   115  114  125 1   
   116  115  116 1   
   117  115  118 1   
   118  115  126 1   
   119  116  117 2   
   120  116  134 1   
   121  118  119 1   
   122  118  127 1   
   123  118  128 1   
   124  119  120 ar  
   125  119  121 ar  
   126  120  122 ar  
   127  120  129 1   
   128  121  123 ar  
   129  121  130 1   
   130  122  124 ar  
   131  122  131 1   
   132  123  124 ar  
   133  123  132 1   
   134  124  133 1   
   135  134  135 1   
   136  134  140 1   
   137  135  136 1   
   138  135  138 1   
   139  135  141 1   
   140  136  137 2   
   141  136  148 1   
   142  138  139 1   
   143  138  142 1   
   144  138  143 1   
   145  139  140 1   
   146  139  144 1   
   147  139  145 1   
   148  140  146 1   
   149  140  147 1   
   150  148  149 1   
   151  148  157 1   
   152  149  150 1   
   153  149  152 1   
   154  149  158 1   
   155  150  151 2   
   156  150  163 1   
   157  152  153 1   
   158  152  159 1   
   159  152  160 1   
   160  153  154 1   
   161  153  161 1   
   162  153  162 1   
   163  154  155 1   
   164  154  156 1   
   165  163  164 1   
   166  163  168 1   
   167  164  165 1   
   168  164  166 1   
   169  164  167 1   
   170  170  171 1   
   171  170  172 1   
   172  173  174 1   
   173  173  175 1   
@<TRIPOS>SUBSTRUCTURE
     1 MOL         1 TEMP              0 ****  ****    0 ROOT
