@<TRIPOS>MOLECULE
MOL
  182   178     1     0     0
SMALL
resp


@<TRIPOS>ATOM
      1 C1          2.2930    2.7440    5.5920 c3        1 MOL     -0.343991
      2 C2          1.7580    2.6260    4.1310 c         1 MOL      0.776302
      3 O1          2.5980    2.4730    3.2720 o         1 MOL     -0.603759
      4 H1          1.7430    2.0590    6.2360 hc        1 MOL      0.085823
      5 H2          3.3520    2.4910    5.6130 hc        1 MOL      0.085823
      6 H3          2.1560    3.7650    5.9480 hc        1 MOL      0.085823
      7 N1          0.4320    2.6560    3.8940 n         1 MOL     -0.610210
      8 C3         -0.2460    2.7260    2.6550 c3        1 MOL     -0.018344
      9 C4         -0.1640    4.1000    1.9700 c         1 MOL      0.547115
     10 O2         -0.6380    5.0900    2.5150 o         1 MOL     -0.554638
     11 C5         -1.7010    2.2140    2.8700 c3        1 MOL      0.112404
     12 C6         -2.4790    1.7340    1.5800 c         1 MOL      0.650008
     13 O3         -3.5290    1.1180    1.7550 o         1 MOL     -0.691590
     14 O4         -2.0690    2.0890    0.4430 o         1 MOL     -0.691590
     15 H4         -0.2170    2.7590    4.6650 hn        1 MOL      0.317827
     16 H5          0.2890    1.9690    2.0760 h1        1 MOL      0.007306
     17 H6         -2.3660    2.9180    3.3810 hc        1 MOL     -0.018481
     18 H7         -1.6120    1.3490    3.5180 hc        1 MOL     -0.018481
     19 N2          0.4040    4.1700    0.7820 n         1 MOL     -0.234319
     20 C7          0.4820    5.4700    0.0450 c3        1 MOL     -0.116197
     21 C8         -0.7710    5.9710   -0.6880 c         1 MOL      0.586720
     22 O5         -0.8570    7.1590   -0.9700 o         1 MOL     -0.555720
     23 C9          1.7590    5.4210   -0.8740 c3        1 MOL     -0.123713
     24 C10         3.0800    5.5340   -0.1070 c3        1 MOL      0.089217
     25 C11         4.3010    5.4560   -0.9750 c3        1 MOL     -0.073700
     26 C12         5.5810    5.7540   -0.2200 c3        1 MOL      0.167458
     27 N3          6.6830    5.9490   -1.1500 n4        1 MOL     -0.409435
     28 H8          0.6720    3.3030    0.3440 hn        1 MOL      0.190565
     29 H9          0.7210    6.2390    0.7790 h1        1 MOL      0.110837
     30 H10         1.7260    6.2210   -1.6130 hc        1 MOL      0.057337
     31 H11         1.7320    4.4930   -1.4440 hc        1 MOL      0.057337
     32 H12         3.2540    4.7610    0.6540 hc        1 MOL      0.017657
     33 H13         3.1260    6.4560    0.4880 hc        1 MOL      0.017657
     34 H14         4.1570    6.1960   -1.7580 hc        1 MOL      0.017226
     35 H15         4.4250    4.4710   -1.4340 hc        1 MOL      0.017226
     36 H16         5.8080    4.9780    0.5000 hx        1 MOL      0.053179
     37 H17         5.4560    6.7300    0.2500 hx        1 MOL      0.053179
     38 H18         6.3770    6.6190   -1.8360 hn        1 MOL      0.335701
     39 H19         7.5630    6.1620   -0.6950 hn        1 MOL      0.335701
     40 H20         6.9820    5.0990   -1.6060 hn        1 MOL      0.335701
     41 N4         -1.8630    5.1400   -0.8080 n         1 MOL     -0.261804
     42 C13        -3.0900    5.4470   -1.5200 c3        1 MOL     -0.021956
     43 C14        -4.3680    5.2300   -0.6850 c         1 MOL      0.437611
     44 O6         -5.3810    5.9470   -0.8880 o         1 MOL     -0.522524
     45 C15        -3.1230    4.6900   -2.8890 c3        1 MOL     -0.138460
     46 C16        -2.7110    3.1880   -2.7240 c         1 MOL      0.642162
     47 O7         -1.4950    2.8830   -2.5480 o         1 MOL     -0.716636
     48 O8         -3.5900    2.2940   -2.5760 o         1 MOL     -0.716636
     49 H21        -1.7960    4.2140   -0.3920 hn        1 MOL      0.094769
     50 H22        -3.0560    6.5140   -1.7560 h1        1 MOL      0.102209
     51 H23        -2.4130    5.1570   -3.5710 hc        1 MOL      0.051996
     52 H24        -4.0880    4.7120   -3.4040 hc        1 MOL      0.051996
     53 N5         -4.2930    4.2680    0.2130 n         1 MOL     -0.188284
     54 C17        -5.4190    3.8680    1.0950 c3        1 MOL     -0.171120
     55 C18        -6.4360    2.9080    0.4640 c         1 MOL      0.573475
     56 O9         -7.6270    3.1070    0.5690 o         1 MOL     -0.587164
     57 H25        -3.4430    3.7280    0.2640 hn        1 MOL      0.193705
     58 H26        -5.9330    4.7800    1.3820 h1        1 MOL      0.104721
     59 H27        -5.0710    3.3810    2.0040 h1        1 MOL      0.104721
     60 N6         -6.0300    1.8100   -0.1580 n         1 MOL     -0.138993
     61 C19        -6.8120    0.6790   -0.7860 c3        1 MOL     -0.134801
     62 C20        -6.8500   -0.6310    0.0470 c         1 MOL      0.231361
     63 O10        -7.4430   -1.5810   -0.4130 o         1 MOL     -0.400606
     64 C21        -6.2170    0.3870   -2.1590 c3        1 MOL     -0.062260
     65 C22        -4.9470   -0.4420   -2.0750 c         1 MOL      0.577222
     66 N7         -4.6560   -1.2330   -3.0760 n         1 MOL     -0.638022
     67 O11        -4.2190   -0.4620   -1.1080 o         1 MOL     -0.622196
     68 H28        -5.0290    1.6870   -0.1910 hn        1 MOL      0.113561
     69 H29        -7.8590    0.9300   -0.9660 h1        1 MOL      0.162415
     70 H30        -5.9440    1.2780   -2.7230 hc        1 MOL      0.055244
     71 H31        -6.9320   -0.1870   -2.7620 hc        1 MOL      0.055244
     72 H32        -5.1930   -1.0470   -3.9050 hn        1 MOL      0.331751
     73 H33        -3.7670   -1.7130   -3.0350 hn        1 MOL      0.331751
     74 N8         -6.2790   -0.6140    1.2500 n         1 MOL     -0.053700
     75 C23        -6.3810   -1.7580    2.2250 c3        1 MOL     -0.347096
     76 C24        -5.2970   -2.7830    2.1750 c         1 MOL      0.799269
     77 O12        -5.4160   -3.8080    2.7880 o         1 MOL     -0.588792
     78 H34        -5.9370    0.3060    1.5080 hn        1 MOL      0.198758
     79 H35        -7.3570   -2.2150    2.0730 h1        1 MOL      0.136203
     80 H36        -6.3940   -1.3230    3.2230 h1        1 MOL      0.136203
     81 N9         -4.2240   -2.5230    1.4200 n         1 MOL     -0.863070
     82 C25        -3.1450   -3.5020    1.2150 c3        1 MOL      0.633221
     83 C26        -1.8490   -2.7140    0.9820 c         1 MOL      0.277081
     84 O13        -1.8910   -1.6230    0.3730 o         1 MOL     -0.630096
     85 C27        -3.2970   -4.3450   -0.0650 c3        1 MOL     -0.074094
     86 C28        -4.6180   -5.0830   -0.3490 ca        1 MOL     -0.021071
     87 C29        -5.7230   -4.4140   -0.8670 ca        1 MOL     -0.156889
     88 C30        -4.7260   -6.4470    0.0320 ca        1 MOL     -0.156889
     89 C31        -6.9950   -5.1010   -0.9040 ca        1 MOL     -0.225703
     90 C32        -5.9210   -7.1480   -0.0800 ca        1 MOL     -0.225703
     91 C33        -7.0440   -6.4330   -0.5440 ca        1 MOL      0.337695
     92 O14        -8.2290   -7.0820   -0.5130 oh        1 MOL     -0.489012
     93 H37        -4.1560   -1.6610    0.8980 hn        1 MOL      0.520547
     94 H38        -3.0710   -4.1350    2.1010 h1        1 MOL     -0.052865
     95 H39        -2.4580   -5.0520   -0.0300 hc        1 MOL      0.022375
     96 H40        -3.1460   -3.6720   -0.9090 hc        1 MOL      0.022375
     97 H41        -5.5780   -3.3510   -1.0100 ha        1 MOL      0.111878
     98 H42        -3.9260   -7.0130    0.5010 ha        1 MOL      0.111878
     99 H43        -7.9370   -4.6740   -1.2210 ha        1 MOL      0.135754
    100 H44        -5.9430   -8.1940    0.1930 ha        1 MOL      0.135754
    101 H45        -8.0980   -7.9170   -0.0620 ho        1 MOL      0.350880
    102 N10        -0.7050   -3.2500    1.5110 n         1 MOL     -0.390975
    103 C34         0.6630   -2.7920    1.1500 c3        1 MOL     -0.066025
    104 C35         1.5800   -3.8580    0.5470 c         1 MOL      0.442160
    105 O15         1.3800   -5.0390    0.7720 o         1 MOL     -0.529534
    106 C36         1.2350   -1.9500    2.3570 c3        1 MOL     -0.083472
    107 C37         1.5530   -2.9660    3.5150 c3        1 MOL     -0.170088
    108 C38         0.2910   -0.8100    2.7530 c3        1 MOL     -0.078007
    109 C39         2.1100   -2.3950    4.8400 c3        1 MOL     -0.228219
    110 H46        -0.8160   -4.1100    2.0290 hn        1 MOL      0.269144
    111 H47         0.4990   -2.0710    0.3410 h1        1 MOL      0.207140
    112 H48         2.1130   -1.3770    2.0350 hc        1 MOL      0.103335
    113 H49         2.2940   -3.6120    3.0500 hc        1 MOL      0.099549
    114 H50         0.6950   -3.5910    3.7610 hc        1 MOL      0.099549
    115 H51        -0.5550   -1.1970    3.3270 hc        1 MOL      0.065418
    116 H52         0.8800   -0.0950    3.3160 hc        1 MOL      0.065418
    117 H53        -0.0120   -0.2750    1.8500 hc        1 MOL      0.065418
    118 H54         1.3230   -1.8130    5.3200 hc        1 MOL      0.065323
    119 H55         2.3540   -3.2820    5.4270 hc        1 MOL      0.065323
    120 H56         2.9920   -1.7960    4.6300 hc        1 MOL      0.065323
    121 N11         2.5560   -3.4180   -0.1680 n         1 MOL     -0.067282
    122 C40         3.5190   -4.1390   -0.9630 c3        1 MOL     -0.105110
    123 C41         4.9150   -3.9790   -0.4300 c         1 MOL      0.554700
    124 O16         5.1560   -3.1680    0.4460 o         1 MOL     -0.453414
    125 C42         3.5210   -3.6170   -2.4460 c3        1 MOL     -0.087508
    126 O17         3.9760   -2.3170   -2.4700 oh        1 MOL     -0.505690
    127 H57         2.7450   -2.4200   -0.1300 hn        1 MOL      0.008054
    128 H58         3.2580   -5.2000   -0.9410 h1        1 MOL      0.075644
    129 H59         2.5420   -3.6590   -2.9130 h1        1 MOL      0.102879
    130 H60         4.1640   -4.2530   -3.0600 h1        1 MOL      0.102879
    131 H61         3.2620   -1.7920   -2.1070 ho        1 MOL      0.392355
    132 N12         5.8930   -4.6270   -0.9930 n         1 MOL     -0.472466
    133 C43         7.2940   -4.5370   -0.5970 c3        1 MOL      0.171131
    134 C44         7.9440   -3.2040   -0.8600 c         1 MOL      0.349378
    135 O18         8.8070   -2.7510   -0.0810 o         1 MOL     -0.483769
    136 C45         8.1400   -5.6000   -1.2710 c3        1 MOL     -0.246447
    137 H62         5.7010   -5.2270   -1.7770 hn        1 MOL      0.293003
    138 H63         7.3880   -4.6780    0.4750 h1        1 MOL      0.082585
    139 H64         9.0870   -5.6640   -0.7370 hc        1 MOL      0.080103
    140 H65         7.6200   -6.5590   -1.1830 hc        1 MOL      0.080103
    141 H66         8.2730   -5.4180   -2.3340 hc        1 MOL      0.080103
    142 N13         7.4190   -2.3700   -1.8630 n         1 MOL     -0.201947
    143 C46         7.8180   -1.0200   -2.1630 c3        1 MOL     -0.016082
    144 C47         7.2010    0.0780   -1.2770 c         1 MOL      0.418347
    145 O19         7.8170    1.1040   -0.9450 o         1 MOL     -0.517513
    146 C48         7.5040   -0.7790   -3.7100 c3        1 MOL     -0.240393
    147 H67         6.8510   -2.8580   -2.5510 hn        1 MOL      0.222763
    148 H68         8.9000   -1.0430   -2.0430 h1        1 MOL      0.108810
    149 H69         8.1400   -1.5300   -4.1620 hc        1 MOL      0.074509
    150 H70         6.4380   -0.9320   -3.9130 hc        1 MOL      0.074509
    151 H71         7.7770    0.2000   -4.0950 hc        1 MOL      0.074509
    152 N14         5.9220   -0.1070   -0.8530 n         1 MOL     -0.148229
    153 C49         5.3910    0.6760    0.2740 c3        1 MOL     -0.133747
    154 C50         6.1590    0.4290    1.6110 c         1 MOL      0.435505
    155 O20         6.5860    1.4590    2.2680 o         1 MOL     -0.552381
    156 C51         3.9120    0.5040    0.4930 c3        1 MOL      0.112434
    157 C52         3.0950    1.1740   -0.5590 c3        1 MOL      0.400454
    158 C53         1.9160    0.3030   -0.8120 c         1 MOL      0.543494
    159 O21         1.9340   -0.7290   -1.5220 o         1 MOL     -0.731669
    160 O22         0.7350    0.5870   -0.3470 o         1 MOL     -0.731669
    161 H72         5.3760   -0.9360   -1.0920 hn        1 MOL      0.082168
    162 H73         5.4890    1.7380    0.0330 h1        1 MOL      0.089997
    163 H74         3.6340    0.8530    1.4890 hc        1 MOL     -0.021104
    164 H75         3.8650   -0.5870    0.5000 hc        1 MOL     -0.021104
    165 H76         3.6930    1.2520   -1.4650 hc        1 MOL     -0.114436
    166 H77         2.8760    2.2110   -0.3340 hc        1 MOL     -0.114436
    167 N15         6.4480   -0.7950    1.9820 n         1 MOL     -0.110413
    168 C54         7.3740   -1.1420    3.1320 c3        1 MOL     -0.244707
    169 H78         7.6060   -0.2380    3.6960 h1        1 MOL      0.112303
    170 H79         6.8850   -1.8620    3.7890 h1        1 MOL      0.112303
    171 H80         8.2950   -1.5730    2.7410 h1        1 MOL      0.112303
    172 H81         6.0680   -1.6070    1.5050 hn        1 MOL      0.176340
    173 Ca1        -1.6460    0.4300   -1.4210 Ca        1 MOL      1.806150
    174 O23        -1.9810    0.1860   -4.1470 oh        1 MOL     -0.846148
    175 H82        -2.1720    0.0190   -5.0760 ho        1 MOL      0.412844
    176 H83        -1.1120    0.6020   -4.1590 ho        1 MOL      0.412844
    177 O24         0.6680    0.5980   -3.7530 oh        1 MOL     -0.846148
    178 H84         1.0810    1.1630   -4.4130 ho        1 MOL      0.412844
    179 H85         1.3880    0.0930   -3.3810 ho        1 MOL      0.412844
    180 O25        -0.4370   -1.8420   -2.3210 oh        1 MOL     -0.846148
    181 H86        -0.4430   -2.6800   -2.7790 ho        1 MOL      0.412844
    182 H87         0.4820   -1.6730   -2.1320 ho        1 MOL      0.412844
@<TRIPOS>BOND
     1    1    2 1   
     2    1    4 1   
     3    1    5 1   
     4    1    6 1   
     5    2    3 2   
     6    2    7 1   
     7    7    8 1   
     8    7   15 1   
     9    8    9 1   
    10    8   11 1   
    11    8   16 1   
    12    9   10 2   
    13    9   19 1   
    14   11   12 1   
    15   11   17 1   
    16   11   18 1   
    17   12   13 1   
    18   12   14 1   
    19   19   20 1   
    20   19   28 1   
    21   20   21 1   
    22   20   23 1   
    23   20   29 1   
    24   21   22 2   
    25   21   41 1   
    26   23   24 1   
    27   23   30 1   
    28   23   31 1   
    29   24   25 1   
    30   24   32 1   
    31   24   33 1   
    32   25   26 1   
    33   25   34 1   
    34   25   35 1   
    35   26   27 1   
    36   26   36 1   
    37   26   37 1   
    38   27   38 1   
    39   27   39 1   
    40   27   40 1   
    41   41   42 1   
    42   41   49 1   
    43   42   43 1   
    44   42   45 1   
    45   42   50 1   
    46   43   44 2   
    47   43   53 1   
    48   45   46 1   
    49   45   51 1   
    50   45   52 1   
    51   46   47 1   
    52   46   48 1   
    53   53   54 1   
    54   53   57 1   
    55   54   55 1   
    56   54   58 1   
    57   54   59 1   
    58   55   56 2   
    59   55   60 1   
    60   60   61 1   
    61   60   68 1   
    62   61   62 1   
    63   61   64 1   
    64   61   69 1   
    65   62   63 2   
    66   62   74 1   
    67   64   65 1   
    68   64   70 1   
    69   64   71 1   
    70   65   66 1   
    71   65   67 2   
    72   66   72 1   
    73   66   73 1   
    74   74   75 1   
    75   74   78 1   
    76   75   76 1   
    77   75   79 1   
    78   75   80 1   
    79   76   77 2   
    80   76   81 1   
    81   81   82 1   
    82   81   93 1   
    83   82   83 1   
    84   82   85 1   
    85   82   94 1   
    86   83   84 2   
    87   83  102 1   
    88   85   86 1   
    89   85   95 1   
    90   85   96 1   
    91   86   87 ar  
    92   86   88 ar  
    93   87   89 ar  
    94   87   97 1   
    95   88   90 ar  
    96   88   98 1   
    97   89   91 ar  
    98   89   99 1   
    99   90   91 ar  
   100   90  100 1   
   101   91   92 1   
   102   92  101 1   
   103  102  103 1   
   104  102  110 1   
   105  103  104 1   
   106  103  106 1   
   107  103  111 1   
   108  104  105 2   
   109  104  121 1   
   110  106  107 1   
   111  106  108 1   
   112  106  112 1   
   113  107  109 1   
   114  107  113 1   
   115  107  114 1   
   116  108  115 1   
   117  108  116 1   
   118  108  117 1   
   119  109  118 1   
   120  109  119 1   
   121  109  120 1   
   122  121  122 1   
   123  121  127 1   
   124  122  123 1   
   125  122  125 1   
   126  122  128 1   
   127  123  124 2   
   128  123  132 1   
   129  125  126 1   
   130  125  129 1   
   131  125  130 1   
   132  126  131 1   
   133  132  133 1   
   134  132  137 1   
   135  133  134 1   
   136  133  136 1   
   137  133  138 1   
   138  134  135 2   
   139  134  142 1   
   140  136  139 1   
   141  136  140 1   
   142  136  141 1   
   143  142  143 1   
   144  142  147 1   
   145  143  144 1   
   146  143  146 1   
   147  143  148 1   
   148  144  145 2   
   149  144  152 1   
   150  146  149 1   
   151  146  150 1   
   152  146  151 1   
   153  152  153 1   
   154  152  161 1   
   155  153  154 1   
   156  153  156 1   
   157  153  162 1   
   158  154  155 2   
   159  154  167 1   
   160  156  157 1   
   161  156  163 1   
   162  156  164 1   
   163  157  158 1   
   164  157  165 1   
   165  157  166 1   
   166  158  159 1   
   167  158  160 1   
   168  167  168 1   
   169  167  172 1   
   170  168  169 1   
   171  168  170 1   
   172  168  171 1   
   173  174  175 1   
   174  174  176 1   
   175  177  178 1   
   176  177  179 1   
   177  180  181 1   
   178  180  182 1   
@<TRIPOS>SUBSTRUCTURE
     1 MOL         1 TEMP              0 ****  ****    0 ROOT
