@<TRIPOS>MOLECULE
MOL
  175   173     1     0     0
SMALL
resp


@<TRIPOS>ATOM
      1 C1         -0.1630   -3.7320    5.5330 c3        1 MOL     -0.377755
      2 C2          0.4990   -3.6160    4.1210 c         1 MOL      0.756464
      3 O1         -0.0640   -3.5340    3.0500 o         1 MOL     -0.601451
      4 H1          0.6150   -3.8310    6.2900 hc        1 MOL      0.091970
      5 H2         -0.7520   -2.8370    5.7340 hc        1 MOL      0.091970
      6 H3         -0.8100   -4.6070    5.5610 hc        1 MOL      0.091970
      7 N1          1.8010   -3.4240    4.1110 n         1 MOL     -0.724565
      8 C3          2.5590   -3.1700    2.8460 c3        1 MOL      0.257118
      9 C4          2.7960   -4.4190    2.0520 c         1 MOL      0.680129
     10 O2          2.9870   -5.4700    2.6120 o         1 MOL     -0.614492
     11 C5          3.8160   -2.4050    3.1750 c3        1 MOL     -0.455371
     12 C6          4.6280   -2.1650    1.9330 c         1 MOL      0.810937
     13 O3          5.8390   -2.4280    1.9540 o         1 MOL     -0.676187
     14 O4          4.0510   -1.7610    0.8930 o         1 MOL     -0.676187
     15 H4          2.2770   -3.4350    5.0070 hn        1 MOL      0.344721
     16 H5          1.9170   -2.5250    2.2440 h1        1 MOL      0.153480
     17 H6          4.2910   -3.0740    3.8970 hc        1 MOL      0.072249
     18 H7          3.4890   -1.4930    3.6660 hc        1 MOL      0.072249
     19 N2          2.8050   -4.3350    0.7450 n         1 MOL     -0.652013
     20 C7          2.8970   -5.4060   -0.2980 c3        1 MOL      0.360526
     21 C8          3.7550   -5.0580   -1.4850 c         1 MOL      0.279475
     22 O5          3.8310   -5.8780   -2.3950 o         1 MOL     -0.532383
     23 C9          1.4860   -5.8880   -0.6800 c3        1 MOL     -0.277943
     24 H8          2.4770   -3.4190    0.4560 hn        1 MOL      0.408417
     25 H9          3.3170   -6.2880    0.1880 h1        1 MOL      0.018407
     26 H10         1.4440   -6.8590   -1.1620 hc        1 MOL      0.072126
     27 H11         0.8880   -6.0350    0.2240 hc        1 MOL      0.072126
     28 H12         1.0860   -5.0320   -1.2150 hc        1 MOL      0.072126
     29 N3          4.2740   -3.7980   -1.4910 n         1 MOL     -0.036083
     30 C10         5.2390   -3.2950   -2.5220 c3        1 MOL      0.036945
     31 C11         6.4250   -2.4580   -2.0260 c         1 MOL      0.264701
     32 O6          7.4720   -2.3300   -2.7130 o         1 MOL     -0.565629
     33 C12         4.4470   -2.5830   -3.6890 c3        1 MOL     -0.086679
     34 C13         3.3000   -1.5760   -3.2880 c         1 MOL      0.643533
     35 O7          3.3470   -0.9840   -2.1610 o         1 MOL     -0.663797
     36 O8          2.4020   -1.3710   -4.1090 o         1 MOL     -0.663797
     37 H13         4.0790   -3.2350   -0.6770 hn        1 MOL     -0.035963
     38 H14         5.7340   -4.1530   -2.9740 h1        1 MOL      0.067196
     39 H15         4.1710   -3.3980   -4.3560 hc        1 MOL      0.022049
     40 H16         5.1170   -1.9150   -4.2300 hc        1 MOL      0.022049
     41 N4          6.3260   -1.7600   -0.9600 n         1 MOL      0.015963
     42 C14         7.3760   -0.8870   -0.3980 c3        1 MOL     -0.268713
     43 C15         7.3350    0.5700   -0.7620 c         1 MOL      0.495929
     44 O9          8.3820    1.2560   -0.7250 o         1 MOL     -0.594617
     45 H17         5.5150   -1.9090   -0.3850 hn        1 MOL      0.140303
     46 H18         8.3120   -1.2530   -0.8090 h1        1 MOL      0.127552
     47 H19         7.3710   -0.9400    0.6900 h1        1 MOL      0.127552
     48 N5          6.1830    1.0180   -1.2960 n         1 MOL     -0.016095
     49 C16         5.9890    2.3320   -1.9370 c3        1 MOL     -0.201701
     50 C17         5.9050    3.5480   -0.9720 c         1 MOL      0.473335
     51 O10         6.0400    4.7690   -1.3600 o         1 MOL     -0.520474
     52 C18         4.8750    2.3750   -3.0100 c3        1 MOL     -0.184076
     53 C19         3.4740    2.2120   -2.5140 c         1 MOL      0.488213
     54 N6          2.4990    2.1760   -3.3660 n         1 MOL     -0.656622
     55 O11         3.1660    2.1990   -1.3540 o         1 MOL     -0.161231
     56 H20         5.3800    0.3990   -1.2310 hn        1 MOL      0.031094
     57 H21         6.9700    2.3340   -2.4140 h1        1 MOL      0.141319
     58 H22         5.0080    1.5120   -3.6680 hc        1 MOL      0.084269
     59 H23         5.0150    3.3240   -3.5240 hc        1 MOL      0.084269
     60 H24         2.6180    2.2140   -4.3680 hn        1 MOL      0.346256
     61 H25         1.5800    1.9860   -2.9790 hn        1 MOL      0.346256
     62 N7          5.8550    3.3000    0.3370 n         1 MOL     -0.306699
     63 C20         5.7110    4.3370    1.3930 c3        1 MOL     -0.166587
     64 C21         4.3600    4.9330    1.5380 c         1 MOL      0.565236
     65 O12         4.1460    5.9580    2.0980 o         1 MOL     -0.587091
     66 H26         5.8970    2.3440    0.6470 hn        1 MOL      0.257874
     67 H27         6.5040    5.0480    1.1350 h1        1 MOL      0.103969
     68 H28         6.0010    4.0770    2.4090 h1        1 MOL      0.103969
     69 N8          3.3490    4.2840    0.9710 n         1 MOL     -0.222850
     70 C22         1.9330    4.6220    1.0730 c3        1 MOL     -0.075077
     71 C23         1.0540    3.3990    1.4190 c         1 MOL      0.475967
     72 O13         1.3370    2.2970    0.8850 o         1 MOL     -0.567848
     73 C24         1.4170    5.3570   -0.2130 c3        1 MOL      0.489260
     74 C25         1.6990    6.8320   -0.3210 c3        1 MOL     -0.391754
     75 O14         1.9990    4.8620   -1.4200 oh        1 MOL     -0.573977
     76 H29         3.5640    3.5120    0.3530 hn        1 MOL      0.078830
     77 H30         1.7150    5.3370    1.8640 h1        1 MOL      0.071405
     78 H31         0.3360    5.2630   -0.3460 h1        1 MOL     -0.003005
     79 H32         1.9950    3.8950   -1.3800 ho        1 MOL      0.248711
     80 H33         2.7070    6.9750    0.0460 hc        1 MOL      0.092207
     81 H34         1.5750    7.2300   -1.3290 hc        1 MOL      0.092207
     82 H35         1.0410    7.3530    0.3830 hc        1 MOL      0.092207
     83 N9         -0.0390    3.6050    2.2010 n         1 MOL     -0.584915
     84 C26        -1.1260    2.6150    2.2230 c3        1 MOL     -0.002994
     85 C27        -1.9310    2.8520    0.8820 c         1 MOL      0.447516
     86 O15        -2.3750    3.9520    0.5360 o         1 MOL     -0.594363
     87 C28        -2.0370    2.7810    3.4230 c3        1 MOL      0.138954
     88 C29        -1.1880    2.6620    4.7090 c3        1 MOL      0.158242
     89 C30        -3.2420    1.8350    3.4150 c3        1 MOL     -0.299644
     90 C31        -1.9950    2.8510    6.0300 c3        1 MOL     -0.234953
     91 H36        -0.2300    4.5050    2.5990 hn        1 MOL      0.340821
     92 H37        -0.6710    1.6260    2.1810 h1        1 MOL      0.177427
     93 H38        -2.3090    3.8370    3.3420 hc        1 MOL     -0.022094
     94 H39        -0.4170    3.4310    4.6970 hc        1 MOL     -0.038935
     95 H40        -0.6440    1.7120    4.6600 hc        1 MOL     -0.038935
     96 H41        -3.8130    1.8620    2.4870 hc        1 MOL      0.061166
     97 H42        -2.8000    0.8310    3.4050 hc        1 MOL      0.061166
     98 H43        -3.8490    2.0180    4.3000 hc        1 MOL      0.061166
     99 H44        -2.4830    1.9190    6.3150 hc        1 MOL      0.052487
    100 H45        -1.3450    3.2490    6.8150 hc        1 MOL      0.052487
    101 H46        -2.7870    3.5790    5.8800 hc        1 MOL      0.052487
    102 N10        -1.8550    1.9080    0.0130 n         1 MOL      0.034524
    103 C32        -2.6640    1.7450   -1.2490 c3        1 MOL     -0.114745
    104 C33        -4.1260    1.2540   -0.8410 c         1 MOL      0.462286
    105 O16        -4.3090    0.6440    0.1800 o         1 MOL     -0.294514
    106 C34        -1.9460    0.7390   -2.1550 c3        1 MOL     -0.160673
    107 C35        -0.5040    1.1690   -2.5560 c         1 MOL      0.679421
    108 O17        -0.3110    1.8590   -3.5880 o         1 MOL     -0.667569
    109 O18         0.4000    0.8800   -1.7630 o         1 MOL     -0.667569
    110 H47        -1.3240    1.0930    0.2860 hn        1 MOL      0.001439
    111 H48        -2.8080    2.6620   -1.8230 h1        1 MOL      0.089499
    112 H49        -2.4720    0.5630   -3.0830 hc        1 MOL      0.062838
    113 H50        -1.9760   -0.1790   -1.5720 hc        1 MOL      0.062838
    114 N11        -5.1380    1.6020   -1.6780 n         1 MOL     -0.652353
    115 C36        -6.5040    1.2960   -1.3570 c3        1 MOL      0.404527
    116 C37        -6.6500   -0.2340   -1.2830 c         1 MOL      0.300908
    117 O19        -7.1940   -0.7110   -0.2780 o         1 MOL     -0.475716
    118 C38        -7.5520    1.9360   -2.3160 c3        1 MOL     -0.351421
    119 C39        -8.8970    1.6510   -1.7600 ca        1 MOL      0.208593
    120 C40        -9.7260    0.6210   -2.2490 ca        1 MOL     -0.256635
    121 C41        -9.3870    2.4620   -0.6860 ca        1 MOL     -0.256635
    122 C42       -10.9280    0.2810   -1.6270 ca        1 MOL     -0.036020
    123 C43       -10.6440    2.1590   -0.0940 ca        1 MOL     -0.036020
    124 C44       -11.3890    1.1070   -0.6000 ca        1 MOL     -0.172828
    125 H51        -4.8400    1.9820   -2.5660 hn        1 MOL      0.333932
    126 H52        -6.7990    1.7120   -0.3930 h1        1 MOL      0.060690
    127 H53        -7.3470    1.5920   -3.3270 hc        1 MOL      0.105011
    128 H54        -7.5180    3.0230   -2.2540 hc        1 MOL      0.105011
    129 H55        -9.2910   -0.0410   -2.9800 ha        1 MOL      0.133299
    130 H56        -8.7590    3.2540   -0.3000 ha        1 MOL      0.133299
    131 H57       -11.4620   -0.6290   -1.8610 ha        1 MOL      0.104215
    132 H58       -11.0310    2.7950    0.6850 ha        1 MOL      0.104215
    133 H59       -12.3430    0.8830   -0.1450 ha        1 MOL      0.103477
    134 N12        -6.0640   -1.1050   -2.1790 n         1 MOL     -0.055015
    135 C45        -6.1440   -2.5610   -2.0160 c3        1 MOL      0.035720
    136 C46        -5.4640   -3.0680   -0.7280 c         1 MOL      0.341109
    137 O20        -5.6320   -4.2020   -0.3360 o         1 MOL     -0.520907
    138 C47        -5.5620   -3.1780   -3.3580 c3        1 MOL     -0.126091
    139 C48        -5.5420   -2.0240   -4.3670 c3        1 MOL      0.005571
    140 C49        -5.4360   -0.7270   -3.4810 c3        1 MOL     -0.163639
    141 H60        -7.2110   -2.7710   -1.9180 h1        1 MOL      0.066558
    142 H61        -4.5300   -3.4130   -3.1120 hc        1 MOL      0.074007
    143 H62        -6.0640   -4.0810   -3.7050 hc        1 MOL      0.074007
    144 H63        -4.7030   -1.9960   -5.0680 hc        1 MOL      0.022073
    145 H64        -6.4530   -1.9670   -4.9640 hc        1 MOL      0.022073
    146 H65        -4.3600   -0.6520   -3.3280 h1        1 MOL      0.095593
    147 H66        -5.7940    0.1650   -4.0000 h1        1 MOL      0.095593
    148 N13        -4.6430   -2.2480   -0.0520 n         1 MOL     -0.089564
    149 C50        -4.0970   -2.5740    1.3000 c3        1 MOL     -0.048399
    150 C51        -4.9630   -1.9480    2.4120 c         1 MOL      0.485552
    151 O21        -5.0200   -2.5890    3.4180 o         1 MOL     -0.573066
    152 C52        -2.6720   -1.9500    1.4340 c3        1 MOL     -0.000528
    153 C53        -1.5450   -2.5110    0.5650 c3        1 MOL     -0.155135
    154 C54        -0.2330   -1.7570    0.4530 c         1 MOL      0.643456
    155 O22         0.7930   -2.2520   -0.1530 o         1 MOL     -0.728445
    156 O23        -0.0110   -0.6130    0.9490 o         1 MOL     -0.728445
    157 H67        -4.5690   -1.3010   -0.3980 hn        1 MOL      0.034262
    158 H68        -4.0680   -3.6650    1.4200 h1        1 MOL      0.116811
    159 H69        -2.4110   -2.0580    2.4860 hc        1 MOL      0.035429
    160 H70        -2.7570   -0.9060    1.1550 hc        1 MOL      0.035429
    161 H71        -1.8770   -2.5940   -0.4680 hc        1 MOL      0.065267
    162 H72        -1.1950   -3.5050    0.8170 hc        1 MOL      0.065267
    163 N14        -5.6860   -0.8640    2.1610 n         1 MOL     -0.069708
    164 C55        -6.6270   -0.3840    3.2030 c3        1 MOL     -0.195140
    165 H73        -7.5020    0.0580    2.7260 h1        1 MOL      0.078636
    166 H74        -6.9380   -1.2220    3.8260 h1        1 MOL      0.078636
    167 H75        -6.1330    0.3660    3.8220 h1        1 MOL      0.078636
    168 H76        -5.5800   -0.4770    1.2360 hn        1 MOL      0.052012
    169 Ca1         2.1770    0.0260   -0.2370 Ca        1 MOL      1.560220
    170 O24         4.2260    0.9930    1.5740 oh        1 MOL     -0.748701
    171 H77         3.4370    1.0360    2.1090 ho        1 MOL      0.364196
    172 H78         4.9410    1.2150    2.1720 ho        1 MOL      0.364196
    173 O25         1.7630   -0.0700    2.5420 oh        1 MOL     -0.748701
    174 H79         0.8400   -0.2560    2.3670 ho        1 MOL      0.364196
    175 H80         1.9120   -0.4020    3.4210 ho        1 MOL      0.364196
@<TRIPOS>BOND
     1    1    2 1   
     2    1    4 1   
     3    1    5 1   
     4    1    6 1   
     5    2    3 2   
     6    2    7 1   
     7    7    8 1   
     8    7   15 1   
     9    8    9 1   
    10    8   11 1   
    11    8   16 1   
    12    9   10 2   
    13    9   19 1   
    14   11   12 1   
    15   11   17 1   
    16   11   18 1   
    17   12   13 1   
    18   12   14 1   
    19   19   20 1   
    20   19   24 1   
    21   20   21 1   
    22   20   23 1   
    23   20   25 1   
    24   21   22 2   
    25   21   29 1   
    26   23   26 1   
    27   23   27 1   
    28   23   28 1   
    29   29   30 1   
    30   29   37 1   
    31   30   31 1   
    32   30   33 1   
    33   30   38 1   
    34   31   32 2   
    35   31   41 1   
    36   33   34 1   
    37   33   39 1   
    38   33   40 1   
    39   34   35 1   
    40   34   36 1   
    41   41   42 1   
    42   41   45 1   
    43   42   43 1   
    44   42   46 1   
    45   42   47 1   
    46   43   44 2   
    47   43   48 1   
    48   48   49 1   
    49   48   56 1   
    50   49   50 1   
    51   49   52 1   
    52   49   57 1   
    53   50   51 2   
    54   50   62 1   
    55   52   53 1   
    56   52   58 1   
    57   52   59 1   
    58   53   54 1   
    59   53   55 2   
    60   54   60 1   
    61   54   61 1   
    62   62   63 1   
    63   62   66 1   
    64   63   64 1   
    65   63   67 1   
    66   63   68 1   
    67   64   65 2   
    68   64   69 1   
    69   69   70 1   
    70   69   76 1   
    71   70   71 1   
    72   70   73 1   
    73   70   77 1   
    74   71   72 2   
    75   71   83 1   
    76   73   74 1   
    77   73   75 1   
    78   73   78 1   
    79   74   80 1   
    80   74   81 1   
    81   74   82 1   
    82   75   79 1   
    83   83   84 1   
    84   83   91 1   
    85   84   85 1   
    86   84   87 1   
    87   84   92 1   
    88   85   86 2   
    89   85  102 1   
    90   87   88 1   
    91   87   89 1   
    92   87   93 1   
    93   88   90 1   
    94   88   94 1   
    95   88   95 1   
    96   89   96 1   
    97   89   97 1   
    98   89   98 1   
    99   90   99 1   
   100   90  100 1   
   101   90  101 1   
   102  102  103 1   
   103  102  110 1   
   104  103  104 1   
   105  103  106 1   
   106  103  111 1   
   107  104  105 2   
   108  104  114 1   
   109  106  107 1   
   110  106  112 1   
   111  106  113 1   
   112  107  108 1   
   113  107  109 1   
   114  114  115 1   
   115  114  125 1   
   116  115  116 1   
   117  115  118 1   
   118  115  126 1   
   119  116  117 2   
   120  116  134 1   
   121  118  119 1   
   122  118  127 1   
   123  118  128 1   
   124  119  120 ar  
   125  119  121 ar  
   126  120  122 ar  
   127  120  129 1   
   128  121  123 ar  
   129  121  130 1   
   130  122  124 ar  
   131  122  131 1   
   132  123  124 ar  
   133  123  132 1   
   134  124  133 1   
   135  134  135 1   
   136  134  140 1   
   137  135  136 1   
   138  135  138 1   
   139  135  141 1   
   140  136  137 2   
   141  136  148 1   
   142  138  139 1   
   143  138  142 1   
   144  138  143 1   
   145  139  140 1   
   146  139  144 1   
   147  139  145 1   
   148  140  146 1   
   149  140  147 1   
   150  148  149 1   
   151  148  157 1   
   152  149  150 1   
   153  149  152 1   
   154  149  158 1   
   155  150  151 2   
   156  150  163 1   
   157  152  153 1   
   158  152  159 1   
   159  152  160 1   
   160  153  154 1   
   161  153  161 1   
   162  153  162 1   
   163  154  155 1   
   164  154  156 1   
   165  163  164 1   
   166  163  168 1   
   167  164  165 1   
   168  164  166 1   
   169  164  167 1   
   170  170  171 1   
   171  170  172 1   
   172  173  174 1   
   173  173  175 1   
@<TRIPOS>SUBSTRUCTURE
     1 MOL         1 TEMP              0 ****  ****    0 ROOT
