@<TRIPOS>MOLECULE
MOL
  189   185     1     0     0
SMALL
resp


@<TRIPOS>ATOM
      1 C1         -0.2940    3.1430    5.5600 c3        1 MOL     -0.331851
      2 C2         -0.6090    2.8670    4.1000 c         1 MOL      0.870306
      3 O1          0.1810    3.1120    3.2140 o         1 MOL     -0.646089
      4 H1         -1.0910    3.7450    5.9960 hc        1 MOL      0.079958
      5 H2         -0.2140    2.1990    6.1000 hc        1 MOL      0.079958
      6 H3          0.6500    3.6840    5.6330 hc        1 MOL      0.079958
      7 N1         -1.7820    2.2640    3.8160 n         1 MOL     -0.805144
      8 C3         -2.2580    1.9740    2.4720 c3        1 MOL      0.523721
      9 C4         -2.5180    3.2790    1.6320 c         1 MOL      0.304189
     10 O2         -3.2880    4.1200    2.1060 o         1 MOL     -0.546713
     11 C5         -3.5260    0.9900    2.5670 c3        1 MOL     -0.442665
     12 C6         -4.0400    0.6130    1.1320 c         1 MOL      0.872057
     13 O3         -5.2250    0.1630    1.0450 o         1 MOL     -0.692673
     14 O4         -3.2820    0.6580    0.1600 o         1 MOL     -0.692673
     15 H4         -2.4630    2.1450    4.5590 hn        1 MOL      0.357003
     16 H5         -1.5010    1.4440    1.8920 h1        1 MOL     -0.049101
     17 H6         -4.2540    1.4930    3.2140 hc        1 MOL      0.097987
     18 H7         -3.1340    0.1230    3.0980 hc        1 MOL      0.097987
     19 N2         -1.8680    3.4730    0.4530 n         1 MOL     -0.050097
     20 C7         -1.7760    4.7960   -0.2590 c3        1 MOL     -0.021423
     21 C8         -2.6860    4.9200   -1.4710 c         1 MOL      0.501427
     22 O5         -3.1570    5.9480   -1.8840 o         1 MOL     -0.572053
     23 C9         -0.3110    5.1940   -0.6640 c3        1 MOL     -0.206418
     24 C10         0.6690    5.1210    0.4990 c3        1 MOL      0.096175
     25 C11         0.3110    6.2220    1.5200 c3        1 MOL     -0.173898
     26 C12         1.3020    6.3370    2.6720 c3        1 MOL      0.158223
     27 N3          0.9780    7.4410    3.5900 n4        1 MOL     -0.345525
     28 H8         -1.2140    2.7940    0.0940 hn        1 MOL      0.115259
     29 H9         -2.2230    5.5100    0.4280 h1        1 MOL      0.051279
     30 H10        -0.2260    6.1830   -1.0990 hc        1 MOL      0.071298
     31 H11        -0.0680    4.3670   -1.3330 hc        1 MOL      0.071298
     32 H12         1.6930    5.3330    0.2070 hc        1 MOL      0.026984
     33 H13         0.6190    4.1860    1.0530 hc        1 MOL      0.026984
     34 H14        -0.6200    5.9510    2.0150 hc        1 MOL      0.058744
     35 H15         0.1780    7.1900    1.0500 hc        1 MOL      0.058744
     36 H16         2.2870    6.5850    2.2920 hx        1 MOL      0.046344
     37 H17         1.3310    5.4200    3.2530 hx        1 MOL      0.046344
     38 H18         0.6470    8.1820    2.9860 hn        1 MOL      0.310852
     39 H19         0.3770    7.1860    4.3640 hn        1 MOL      0.310852
     40 H20         1.8040    7.8830    3.9630 hn        1 MOL      0.310852
     41 N4         -3.0800    3.7580   -2.0250 n         1 MOL     -0.279023
     42 C13        -4.0390    3.6080   -3.1600 c3        1 MOL      0.010328
     43 C14        -5.3010    2.8900   -2.7760 c         1 MOL      0.423841
     44 O6         -6.2100    2.9200   -3.5420 o         1 MOL     -0.515498
     45 C15        -3.4050    2.8910   -4.3500 c3        1 MOL     -0.241518
     46 C16        -2.4890    1.6540   -3.9600 c         1 MOL      0.750871
     47 O7         -2.5610    1.0980   -2.8130 o         1 MOL     -0.686575
     48 O8         -1.6430    1.2510   -4.8020 o         1 MOL     -0.686575
     49 H21        -2.6340    2.9320   -1.6630 hn        1 MOL      0.188922
     50 H22        -4.3050    4.5730   -3.5810 h1        1 MOL      0.116742
     51 H23        -2.7700    3.5570   -4.9200 hc        1 MOL      0.073525
     52 H24        -4.2140    2.5600   -5.0070 hc        1 MOL      0.073525
     53 N5         -5.4820    2.4170   -1.5520 n         1 MOL     -0.181131
     54 C17        -6.8070    2.1520   -1.0310 c3        1 MOL     -0.065221
     55 C18        -7.3660    0.7980   -1.4370 c         1 MOL      0.566269
     56 O9         -8.5400    0.6500   -1.7680 o         1 MOL     -0.616971
     57 H25        -4.6720    2.4320   -0.9450 hn        1 MOL      0.151910
     58 H26        -7.5790    2.8890   -1.2200 h1        1 MOL      0.054315
     59 H27        -6.6470    2.0470    0.0450 h1        1 MOL      0.054315
     60 N6         -6.5500   -0.2370   -1.4940 n         1 MOL     -0.138931
     61 C19        -6.9460   -1.5990   -1.9670 c3        1 MOL     -0.115615
     62 C20        -7.0740   -2.7340   -0.8480 c         1 MOL      0.384048
     63 O10        -7.3020   -3.9220   -1.1070 o         1 MOL     -0.532574
     64 C21        -6.0150   -2.0620   -3.0680 c3        1 MOL     -0.087117
     65 C22        -4.5120   -1.9660   -2.5660 c         1 MOL      0.635563
     66 O11        -4.1510   -2.0800   -1.3330 o         1 MOL     -0.683339
     67 O12        -3.5740   -1.7300   -3.3750 o         1 MOL     -0.683339
     68 H28        -5.6810   -0.0990   -1.0040 hn        1 MOL      0.041204
     69 H29        -7.9270   -1.5180   -2.4400 h1        1 MOL      0.147081
     70 H30        -6.1910   -1.5150   -3.9980 hc        1 MOL      0.054738
     71 H31        -6.1820   -3.1110   -3.3230 hc        1 MOL      0.054738
     72 N7         -6.9610   -2.3530    0.3860 n         1 MOL     -0.179803
     73 C23        -7.0670   -3.1570    1.6020 c3        1 MOL     -0.266266
     74 C24        -5.7070   -3.7830    2.0240 c         1 MOL      0.586531
     75 O13        -5.7070   -4.5470    2.9320 o         1 MOL     -0.577077
     76 H32        -6.7620   -1.3750    0.5720 hn        1 MOL      0.226605
     77 H33        -7.8200   -3.9310    1.4420 h1        1 MOL      0.132114
     78 H34        -7.4710   -2.4770    2.3550 h1        1 MOL      0.132114
     79 N8         -4.5980   -3.3410    1.4650 n         1 MOL     -0.207699
     80 C25        -3.2510   -3.9520    1.7120 c3        1 MOL     -0.278602
     81 C26        -2.1210   -2.9770    1.7520 c         1 MOL      0.704739
     82 O14        -2.1710   -1.9170    1.0840 o         1 MOL     -0.675364
     83 C27        -3.0110   -5.0500    0.6890 c3        1 MOL      0.490034
     84 C28        -4.0050   -6.2340    0.5370 c3        1 MOL     -0.492390
     85 O15        -2.7920   -4.4220   -0.5710 oh        1 MOL     -0.655156
     86 H35        -4.7010   -2.6030    0.7810 hn        1 MOL      0.169339
     87 H36        -3.2910   -4.4800    2.6570 h1        1 MOL      0.099284
     88 H37        -2.0760   -5.5260    0.9660 h1        1 MOL     -0.000286
     89 H38        -3.4830   -3.7880   -0.7850 ho        1 MOL      0.418968
     90 H39        -4.9620   -5.8620    0.1530 hc        1 MOL      0.133210
     91 H40        -3.4480   -7.0010    0.0150 hc        1 MOL      0.133210
     92 H41        -4.2660   -6.4900    1.5680 hc        1 MOL      0.133210
     93 N9         -0.9880   -3.4090    2.3660 n         1 MOL     -0.541368
     94 C29         0.3670   -2.7070    2.3630 c3        1 MOL      0.072124
     95 C30         1.4320   -3.4380    1.5120 c         1 MOL      0.426781
     96 O16         1.8390   -4.5870    1.7790 o         1 MOL     -0.544178
     97 C31         0.8200   -2.6340    3.8180 c3        1 MOL      0.368655
     98 C32        -0.3000   -2.2220    4.7950 c3        1 MOL      0.254234
     99 C33         1.9580   -1.6000    3.9440 c3        1 MOL     -0.419067
    100 C34         0.1030   -1.9760    6.2530 c3        1 MOL     -0.425062
    101 H42        -1.0490   -4.2920    2.8570 hn        1 MOL      0.286623
    102 H43         0.2890   -1.6790    2.0020 h1        1 MOL      0.076242
    103 H44         1.1690   -3.5970    4.1880 hc        1 MOL     -0.069605
    104 H45        -0.9630   -3.0820    4.7380 hc        1 MOL     -0.067241
    105 H46        -0.8630   -1.3920    4.3670 hc        1 MOL     -0.067241
    106 H47         2.5810   -1.6840    3.0540 hc        1 MOL      0.059245
    107 H48         1.6690   -0.5600    4.0040 hc        1 MOL      0.059245
    108 H49         2.4490   -1.9150    4.8680 hc        1 MOL      0.059245
    109 H50         0.7270   -2.7610    6.6760 hc        1 MOL      0.101359
    110 H51         0.6530   -1.0420    6.3300 hc        1 MOL      0.101359
    111 H52        -0.7900   -1.7790    6.8390 hc        1 MOL      0.101359
    112 N10         1.9760   -2.7710    0.4540 n         1 MOL     -0.165904
    113 C35         3.2740   -2.9880   -0.2310 c3        1 MOL     -0.072811
    114 C36         4.5610   -2.4920    0.5080 c         1 MOL      0.448862
    115 O17         4.3950   -1.7220    1.4450 o         1 MOL     -0.352875
    116 C37         3.2460   -2.3410   -1.6430 c3        1 MOL      0.202237
    117 C38         2.3670   -3.1720   -2.5670 c3        1 MOL     -0.192398
    118 O18         2.8690   -0.9550   -1.7520 oh        1 MOL     -0.505030
    119 H53         1.4910   -1.9370    0.1530 hn        1 MOL      0.153206
    120 H54         3.4030   -4.0510   -0.4100 h1        1 MOL      0.075045
    121 H55         4.3000   -2.3900   -1.9230 h1        1 MOL      0.005556
    122 H56         2.0550   -0.8680   -1.2470 ho        1 MOL      0.266576
    123 H57         2.3100   -2.7470   -3.5750 hc        1 MOL      0.049702
    124 H58         2.8370   -4.1550   -2.6650 hc        1 MOL      0.049702
    125 H59         1.3370   -3.3060   -2.2220 hc        1 MOL      0.049702
    126 N11         5.7420   -2.9150    0.0570 n         1 MOL     -0.360454
    127 C39         6.9840   -2.5140    0.6070 c3        1 MOL      0.007449
    128 C40         7.1260   -1.0010    0.5120 c         1 MOL      0.214917
    129 O19         7.3120   -0.3020    1.5030 o         1 MOL     -0.451457
    130 C41         8.2570   -3.0460   -0.0830 c3        1 MOL      0.235835
    131 C42         8.4890   -4.5020    0.3090 c3        1 MOL     -0.335846
    132 O20         8.2240   -2.9390   -1.4350 oh        1 MOL     -0.607350
    133 H60         5.7700   -3.6910   -0.5890 hn        1 MOL      0.283825
    134 H61         6.9520   -2.7270    1.6860 h1        1 MOL      0.102224
    135 H62         9.0680   -2.4230    0.2950 h1        1 MOL      0.053261
    136 H63         9.0370   -3.2470   -1.8390 ho        1 MOL      0.414597
    137 H64         7.7020   -5.1400   -0.0800 hc        1 MOL      0.098614
    138 H65         9.4400   -4.7860   -0.1220 hc        1 MOL      0.098614
    139 H66         8.6650   -4.6130    1.3830 hc        1 MOL      0.098614
    140 N12         6.9400   -0.4550   -0.6730 n         1 MOL     -0.096791
    141 C43         7.0250    0.9560   -1.0840 c3        1 MOL     -0.037797
    142 C44         6.0120    1.7280   -0.1950 c         1 MOL      0.408552
    143 O21         6.3890    2.8670    0.1180 o         1 MOL     -0.529113
    144 C45         6.6550    1.1000   -2.5650 c3        1 MOL     -0.229580
    145 C46         7.7590    0.4330   -3.4610 c3        1 MOL      0.030938
    146 C47         7.4430    0.3760   -4.9720 c3        1 MOL      0.068301
    147 C48         8.6120   -0.2900   -5.7900 c3        1 MOL     -0.027778
    148 N13         9.9230    0.4390   -5.4960 n4        1 MOL     -0.275229
    149 H67         7.0620   -1.1430   -1.4050 hn        1 MOL      0.178017
    150 H68         8.0040    1.3370   -0.8140 h1        1 MOL      0.095337
    151 H69         6.5290    2.1780   -2.6920 hc        1 MOL      0.094723
    152 H70         5.6730    0.6620   -2.7220 hc        1 MOL      0.094723
    153 H71         7.7870   -0.6070   -3.1170 hc        1 MOL     -0.013562
    154 H72         8.7630    0.8580   -3.3410 hc        1 MOL     -0.013562
    155 H73         7.3950    1.3640   -5.4220 hc        1 MOL      0.040633
    156 H74         6.4940   -0.1030   -5.1910 hc        1 MOL      0.040633
    157 H75         8.3520   -0.2420   -6.8430 hx        1 MOL      0.085763
    158 H76         8.7550   -1.3220   -5.4570 hx        1 MOL      0.085763
    159 H77         9.8110    1.4460   -5.5760 hn        1 MOL      0.278984
    160 H78        10.1800    0.1180   -4.5770 hn        1 MOL      0.278984
    161 H79        10.6250    0.1260   -6.1580 hn        1 MOL      0.278984
    162 N14         4.8980    1.2080    0.2630 n         1 MOL      0.073978
    163 C49         3.9160    1.9430    0.9990 c3        1 MOL     -0.020783
    164 C50         4.3500    2.1330    2.4940 c         1 MOL      0.408281
    165 O22         4.4690    3.2530    2.9610 o         1 MOL     -0.553139
    166 C51         2.6180    1.2330    0.8110 c3        1 MOL     -0.074422
    167 C52         1.9550    1.6670   -0.4560 c3        1 MOL      0.150325
    168 C53         0.6170    0.8480   -0.5070 c         1 MOL      0.607076
    169 O23         0.6360   -0.4110   -0.3660 o         1 MOL     -0.638399
    170 O24        -0.4690    1.3410   -0.8470 o         1 MOL     -0.638399
    171 H80         4.6960    0.2770   -0.0570 hn        1 MOL      0.019026
    172 H81         3.7600    2.9260    0.5530 h1        1 MOL      0.027424
    173 H82         1.8850    1.3680    1.6000 hc        1 MOL      0.041121
    174 H83         2.8310    0.1660    0.7230 hc        1 MOL      0.041121
    175 H84         2.5660    1.4560   -1.3340 hc        1 MOL     -0.054904
    176 H85         1.7480    2.7390   -0.4390 hc        1 MOL     -0.054904
    177 N15         4.8030    1.0970    3.2140 n         1 MOL     -0.162163
    178 C54         5.6060    1.2470    4.4070 c3        1 MOL     -0.130384
    179 H86         5.1400    0.7020    5.2290 h1        1 MOL      0.072965
    180 H87         6.6040    0.8480    4.2260 h1        1 MOL      0.072965
    181 H88         5.6780    2.3040    4.6670 h1        1 MOL      0.072965
    182 H89         4.7930    0.2110    2.7330 hn        1 MOL      0.169634
    183 Ca1        -1.8260   -0.7990   -1.3870 Ca        1 MOL      1.749718
    184 O25        -1.0920   -3.2710   -2.1920 oh        1 MOL     -0.811828
    185 H90        -1.2590   -3.4860   -3.1040 ho        1 MOL      0.391706
    186 H91        -1.5570   -3.9440   -1.6970 ho        1 MOL      0.391706
    187 O26         0.0710   -0.6560   -3.5630 oh        1 MOL     -0.811828
    188 H92        -0.2030    0.1040   -4.0650 ho        1 MOL      0.391706
    189 H93         0.8100   -1.0190   -4.0520 ho        1 MOL      0.391706
@<TRIPOS>BOND
     1    1    2 1   
     2    1    4 1   
     3    1    5 1   
     4    1    6 1   
     5    2    3 2   
     6    2    7 1   
     7    7    8 1   
     8    7   15 1   
     9    8    9 1   
    10    8   11 1   
    11    8   16 1   
    12    9   10 2   
    13    9   19 1   
    14   11   12 1   
    15   11   17 1   
    16   11   18 1   
    17   12   13 1   
    18   12   14 1   
    19   19   20 1   
    20   19   28 1   
    21   20   21 1   
    22   20   23 1   
    23   20   29 1   
    24   21   22 2   
    25   21   41 1   
    26   23   24 1   
    27   23   30 1   
    28   23   31 1   
    29   24   25 1   
    30   24   32 1   
    31   24   33 1   
    32   25   26 1   
    33   25   34 1   
    34   25   35 1   
    35   26   27 1   
    36   26   36 1   
    37   26   37 1   
    38   27   38 1   
    39   27   39 1   
    40   27   40 1   
    41   41   42 1   
    42   41   49 1   
    43   42   43 1   
    44   42   45 1   
    45   42   50 1   
    46   43   44 2   
    47   43   53 1   
    48   45   46 1   
    49   45   51 1   
    50   45   52 1   
    51   46   47 1   
    52   46   48 1   
    53   53   54 1   
    54   53   57 1   
    55   54   55 1   
    56   54   58 1   
    57   54   59 1   
    58   55   56 2   
    59   55   60 1   
    60   60   61 1   
    61   60   68 1   
    62   61   62 1   
    63   61   64 1   
    64   61   69 1   
    65   62   63 2   
    66   62   72 1   
    67   64   65 1   
    68   64   70 1   
    69   64   71 1   
    70   65   66 1   
    71   65   67 1   
    72   72   73 1   
    73   72   76 1   
    74   73   74 1   
    75   73   77 1   
    76   73   78 1   
    77   74   75 2   
    78   74   79 1   
    79   79   80 1   
    80   79   86 1   
    81   80   81 1   
    82   80   83 1   
    83   80   87 1   
    84   81   82 2   
    85   81   93 1   
    86   83   84 1   
    87   83   85 1   
    88   83   88 1   
    89   84   90 1   
    90   84   91 1   
    91   84   92 1   
    92   85   89 1   
    93   93   94 1   
    94   93  101 1   
    95   94   95 1   
    96   94   97 1   
    97   94  102 1   
    98   95   96 2   
    99   95  112 1   
   100   97   98 1   
   101   97   99 1   
   102   97  103 1   
   103   98  100 1   
   104   98  104 1   
   105   98  105 1   
   106   99  106 1   
   107   99  107 1   
   108   99  108 1   
   109  100  109 1   
   110  100  110 1   
   111  100  111 1   
   112  112  113 1   
   113  112  119 1   
   114  113  114 1   
   115  113  116 1   
   116  113  120 1   
   117  114  115 2   
   118  114  126 1   
   119  116  117 1   
   120  116  118 1   
   121  116  121 1   
   122  117  123 1   
   123  117  124 1   
   124  117  125 1   
   125  118  122 1   
   126  126  127 1   
   127  126  133 1   
   128  127  128 1   
   129  127  130 1   
   130  127  134 1   
   131  128  129 2   
   132  128  140 1   
   133  130  131 1   
   134  130  132 1   
   135  130  135 1   
   136  131  137 1   
   137  131  138 1   
   138  131  139 1   
   139  132  136 1   
   140  140  141 1   
   141  140  149 1   
   142  141  142 1   
   143  141  144 1   
   144  141  150 1   
   145  142  143 2   
   146  142  162 1   
   147  144  145 1   
   148  144  151 1   
   149  144  152 1   
   150  145  146 1   
   151  145  153 1   
   152  145  154 1   
   153  146  147 1   
   154  146  155 1   
   155  146  156 1   
   156  147  148 1   
   157  147  157 1   
   158  147  158 1   
   159  148  159 1   
   160  148  160 1   
   161  148  161 1   
   162  162  163 1   
   163  162  171 1   
   164  163  164 1   
   165  163  166 1   
   166  163  172 1   
   167  164  165 2   
   168  164  177 1   
   169  166  167 1   
   170  166  173 1   
   171  166  174 1   
   172  167  168 1   
   173  167  175 1   
   174  167  176 1   
   175  168  169 1   
   176  168  170 1   
   177  177  178 1   
   178  177  182 1   
   179  178  179 1   
   180  178  180 1   
   181  178  181 1   
   182  184  185 1   
   183  184  186 1   
   184  187  188 1   
   185  187  189 1   
@<TRIPOS>SUBSTRUCTURE
     1 MOL         1 TEMP              0 ****  ****    0 ROOT
