@<TRIPOS>MOLECULE
MOL
  189   185     1     0     0
SMALL
resp


@<TRIPOS>ATOM
      1 C1          0.4530   -2.2700    6.2700 c3        1 MOL     -0.524176
      2 C2          0.8200   -2.3050    4.7890 c         1 MOL      0.715537
      3 O1          0.5110   -1.3860    4.0640 o         1 MOL     -0.551853
      4 H1         -0.2870   -1.4880    6.4420 hc        1 MOL      0.136965
      5 H2          0.0380   -3.2340    6.5650 hc        1 MOL      0.136965
      6 H3          1.3440   -2.0610    6.8610 hc        1 MOL      0.136965
      7 N1          1.6450   -3.2990    4.3880 n         1 MOL     -0.621763
      8 C3          2.3260   -3.2800    3.1350 c3        1 MOL      0.420841
      9 C4          2.1520   -4.6150    2.3620 c         1 MOL      0.503098
     10 O2          2.2810   -5.6820    2.9730 o         1 MOL     -0.594932
     11 C5          3.7930   -2.9270    3.3900 c3        1 MOL     -0.353247
     12 C6          4.3680   -2.1440    2.2740 c         1 MOL      0.841795
     13 O3          5.2920   -1.4480    2.5260 o         1 MOL     -0.703483
     14 O4          3.8630   -2.1410    1.0860 o         1 MOL     -0.703483
     15 H4          1.7760   -4.0750    5.0170 hn        1 MOL      0.297941
     16 H5          1.8260   -2.5500    2.5050 h1        1 MOL     -0.099881
     17 H6          4.3780   -3.8240    3.6120 hc        1 MOL      0.070658
     18 H7          3.7630   -2.2910    4.2790 hc        1 MOL      0.070658
     19 N2          1.9180   -4.5050    1.0340 n         1 MOL     -0.397677
     20 C7          2.1010   -5.5160   -0.0090 c3        1 MOL     -0.089347
     21 C8          3.2790   -5.3050   -1.0740 c         1 MOL      0.696446
     22 O5          3.8090   -6.2800   -1.5910 o         1 MOL     -0.618104
     23 C9          0.6620   -5.7640   -0.5850 c3        1 MOL      0.252371
     24 C10        -0.3170   -6.3920    0.5220 c3        1 MOL     -0.059787
     25 C11         0.6850   -6.6050   -1.8810 c3        1 MOL     -0.349800
     26 C12        -1.8270   -6.2630    0.1640 c3        1 MOL     -0.211028
     27 H8          1.7910   -3.5670    0.6850 hn        1 MOL      0.244420
     28 H9          2.3860   -6.4100    0.5510 h1        1 MOL      0.068656
     29 H10         0.2590   -4.7970   -0.8930 hc        1 MOL      0.021506
     30 H11        -0.2140   -5.8420    1.4650 hc        1 MOL      0.022434
     31 H12        -0.1050   -7.4490    0.6490 hc        1 MOL      0.022434
     32 H13         0.8650   -7.6340   -1.5740 hc        1 MOL      0.072633
     33 H14        -0.3260   -6.6050   -2.3050 hc        1 MOL      0.072633
     34 H15         1.3300   -6.2690   -2.7030 hc        1 MOL      0.072633
     35 H16        -1.9990   -6.6340   -0.8440 hc        1 MOL      0.055443
     36 H17        -2.4610   -6.6860    0.9490 hc        1 MOL      0.055443
     37 H18        -1.9930   -5.1820    0.1070 hc        1 MOL      0.055443
     38 N3          3.9130   -4.1180   -1.3090 n         1 MOL     -0.421443
     39 C13         4.7700   -3.8070   -2.4460 c3        1 MOL      0.018843
     40 C14         6.0370   -3.0140   -2.2420 c         1 MOL      0.394749
     41 O6          6.8110   -2.8660   -3.1730 o         1 MOL     -0.543779
     42 C15         3.8920   -3.1450   -3.4580 c3        1 MOL     -0.334748
     43 C16         3.1830   -1.9360   -2.9880 c         1 MOL      0.824242
     44 O7          3.4670   -1.4860   -1.8120 o         1 MOL     -0.699356
     45 O8          2.3640   -1.4330   -3.7710 o         1 MOL     -0.699356
     46 H19         3.7050   -3.3570   -0.6810 hn        1 MOL      0.149759
     47 H20         5.0180   -4.7950   -2.8460 h1        1 MOL      0.108523
     48 H21         3.1060   -3.8690   -3.6810 hc        1 MOL      0.094587
     49 H22         4.4630   -2.8460   -4.3360 hc        1 MOL      0.094587
     50 N4          6.1880   -2.4960   -1.0820 n         1 MOL     -0.152023
     51 C17         7.4640   -1.9130   -0.6110 c3        1 MOL     -0.205818
     52 C18         7.6550   -0.5340   -1.1220 c         1 MOL      0.475831
     53 O9          8.8290   -0.1620   -1.1960 o         1 MOL     -0.610959
     54 H23         5.4790   -2.5490   -0.3650 hn        1 MOL      0.168871
     55 H24         8.2830   -2.4730   -1.0530 h1        1 MOL      0.114083
     56 H25         7.6150   -1.9820    0.4640 h1        1 MOL      0.114083
     57 N5          6.6480    0.1740   -1.6110 n         1 MOL     -0.030118
     58 C19         6.7870    1.5720   -2.1790 c3        1 MOL     -0.180419
     59 C20         6.8440    2.7520   -1.1630 c         1 MOL      0.497636
     60 O10         7.0770    3.9680   -1.5100 o         1 MOL     -0.557608
     61 C21         5.6140    1.8560   -3.0790 c3        1 MOL     -0.147735
     62 C22         4.2240    1.7760   -2.4320 c         1 MOL      0.727756
     63 O11         4.0300    1.4230   -1.2250 o         1 MOL     -0.687736
     64 O12         3.2600    2.0970   -3.2050 o         1 MOL     -0.687736
     65 H26         5.7130   -0.1420   -1.4120 hn        1 MOL      0.107937
     66 H27         7.6910    1.6260   -2.7830 h1        1 MOL      0.132040
     67 H28         5.6980    1.0950   -3.8600 hc        1 MOL      0.056296
     68 H29         5.7270    2.8280   -3.5700 hc        1 MOL      0.056296
     69 N6          6.7460    2.4750    0.1470 n         1 MOL     -0.327864
     70 C23         6.8910    3.4840    1.1910 c3        1 MOL     -0.243570
     71 C24         5.5700    4.1660    1.6050 c         1 MOL      0.411038
     72 O13         5.6280    5.1870    2.3110 o         1 MOL     -0.564818
     73 H30         6.4030    1.5950    0.5180 hn        1 MOL      0.267556
     74 H31         7.5890    4.2120    0.7900 h1        1 MOL      0.139240
     75 H32         7.3150    3.0050    2.0770 h1        1 MOL      0.139240
     76 N7          4.3820    3.6960    1.1600 n         1 MOL     -0.144172
     77 C25         3.1050    4.4370    1.2210 c3        1 MOL     -0.176968
     78 C26         1.9070    3.5120    1.2600 c         1 MOL      0.402073
     79 O14         1.8690    2.4220    0.5920 o         1 MOL     -0.554145
     80 C27         3.0500    5.3550   -0.0840 c3        1 MOL      0.117946
     81 C28         4.2720    6.2110   -0.2980 c3        1 MOL     -0.297995
     82 C29         4.1300    7.1290   -1.5150 c         1 MOL      0.612533
     83 N8          4.8910    7.0230   -2.6040 n         1 MOL     -0.714776
     84 O15         3.4190    8.1100   -1.3920 o         1 MOL     -0.586607
     85 H33         4.3890    2.8650    0.5940 hn        1 MOL      0.217705
     86 H34         3.0720    5.0860    2.1010 h1        1 MOL      0.077866
     87 H35         2.1610    5.9840   -0.1040 hc        1 MOL      0.035039
     88 H36         2.9170    4.6430   -0.8940 hc        1 MOL      0.035039
     89 H37         5.1140    5.5290   -0.4430 hc        1 MOL      0.121382
     90 H38         4.3430    6.8260    0.5950 hc        1 MOL      0.121382
     91 H39         5.6330    6.3440   -2.6430 hn        1 MOL      0.333161
     92 H40         4.9040    7.8710   -3.1630 hn        1 MOL      0.333161
     93 N9          0.9050    3.9040    1.9930 n         1 MOL     -0.372585
     94 C30        -0.2550    3.0220    2.1430 c3        1 MOL     -0.037262
     95 C31        -1.2580    3.3000    0.9840 c         1 MOL      0.553575
     96 O16        -1.7990    4.4320    0.9540 o         1 MOL     -0.602814
     97 C32        -0.8730    2.9570    3.5240 c3        1 MOL      0.041412
     98 C33        -1.8600    1.8470    3.7000 c3        1 MOL     -0.133102
     99 C34         0.1950    2.8510    4.6690 c3        1 MOL     -0.133102
    100 H41         0.9280    4.8190    2.4280 hn        1 MOL      0.303317
    101 H42         0.0100    1.9910    1.9040 h1        1 MOL      0.280832
    102 H43        -1.2460    3.9590    3.7420 hc        1 MOL      0.018482
    103 H44        -2.7160    2.0180    3.0420 hc        1 MOL      0.022651
    104 H45        -1.4060    0.8680    3.5370 hc        1 MOL      0.022651
    105 H46        -2.4090    1.8460    4.6400 hc        1 MOL      0.022651
    106 H47        -0.3240    2.6100    5.6010 hc        1 MOL      0.022651
    107 H48         0.9720    2.1070    4.4670 hc        1 MOL      0.022651
    108 H49         0.7040    3.7910    4.8680 hc        1 MOL      0.022651
    109 N10        -1.5940    2.2900    0.1640 n         1 MOL     -0.308430
    110 C35        -2.6630    2.3290   -0.8350 c3        1 MOL      0.125885
    111 C36        -4.0930    2.2620   -0.1720 c         1 MOL      0.361012
    112 O17        -4.2770    1.6950    0.9140 o         1 MOL     -0.406265
    113 C37        -2.4540    1.1330   -1.7480 c3        1 MOL      0.064484
    114 C38        -3.1880    1.2450   -3.1050 c         1 MOL      0.514884
    115 N11        -3.1050    0.2950   -4.0050 n         1 MOL     -0.611219
    116 O18        -3.8400    2.2300   -3.3690 o         1 MOL     -0.576870
    117 H50        -1.1950    1.3850    0.3660 hn        1 MOL      0.129734
    118 H51        -2.5510    3.2560   -1.3910 h1        1 MOL      0.052600
    119 H52        -2.5400    0.1800   -1.2320 hc        1 MOL      0.003167
    120 H53        -1.4130    1.2050   -2.0650 hc        1 MOL      0.003167
    121 H54        -2.4670   -0.4720   -3.8440 hn        1 MOL      0.340199
    122 H55        -3.5170    0.5180   -4.9030 hn        1 MOL      0.340199
    123 N12        -5.1670    2.5740   -0.8820 n         1 MOL     -0.467231
    124 C39        -6.5190    2.2340   -0.4870 c3        1 MOL      0.294519
    125 C40        -6.7620    0.6960   -0.2840 c         1 MOL      0.537984
    126 O19        -7.4200    0.2830    0.6400 o         1 MOL     -0.521670
    127 C41        -7.4800    2.7490   -1.5970 c3        1 MOL     -0.113388
    128 C42        -8.8800    2.5220   -1.0360 ca        1 MOL     -0.018880
    129 C43        -9.4490    3.4560   -0.1530 ca        1 MOL     -0.173284
    130 C44        -9.5810    1.3570   -1.4500 ca        1 MOL     -0.173284
    131 C45       -10.6200    3.0370    0.4760 ca        1 MOL     -0.220231
    132 C46       -10.7570    1.0360   -0.8020 ca        1 MOL     -0.220231
    133 C47       -11.3110    1.8180    0.2420 ca        1 MOL      0.335092
    134 O20       -12.4570    1.5100    0.8650 oh        1 MOL     -0.536642
    135 H56        -5.0760    2.9370   -1.8200 hn        1 MOL      0.244131
    136 H57        -6.7820    2.7410    0.4340 h1        1 MOL      0.013823
    137 H58        -7.4100    2.2630   -2.5670 hc        1 MOL      0.052029
    138 H59        -7.2980    3.8220   -1.6700 hc        1 MOL      0.052029
    139 H60        -8.9310    4.3420    0.1540 ha        1 MOL      0.149490
    140 H61        -9.1710    0.7220   -2.2180 ha        1 MOL      0.149490
    141 H62       -11.0820    3.7930    1.1050 ha        1 MOL      0.110860
    142 H63       -11.3100    0.1830   -1.1530 ha        1 MOL      0.110860
    143 H64       -12.6920    0.5990    0.6710 ho        1 MOL      0.397614
    144 N13        -6.1600   -0.1080   -1.1700 n         1 MOL     -0.366451
    145 C48        -6.2070   -1.6040   -1.1870 c3        1 MOL     -0.128064
    146 C49        -5.4440   -2.2940   -0.0430 c         1 MOL      0.429193
    147 O21        -5.5400   -3.4440    0.2200 o         1 MOL     -0.527198
    148 C50        -5.6180   -2.0330   -2.5470 c3        1 MOL      0.173217
    149 C51        -6.5030   -1.5910   -3.7330 c3        1 MOL     -0.282967
    150 C52        -6.0960   -2.3190   -5.0090 c         1 MOL      0.677009
    151 O22        -5.4030   -1.7090   -5.8890 o         1 MOL     -0.722422
    152 O23        -6.4020   -3.5750   -5.1150 o         1 MOL     -0.722422
    153 H65        -5.7750    0.3350   -1.9930 hn        1 MOL      0.250186
    154 H66        -7.2370   -1.9470   -1.1170 h1        1 MOL      0.128001
    155 H67        -5.5660   -3.1160   -2.4580 hc        1 MOL      0.005927
    156 H68        -4.6230   -1.6690   -2.7930 hc        1 MOL      0.005927
    157 H69        -6.3850   -0.5330   -3.9610 hc        1 MOL      0.029991
    158 H70        -7.5560   -1.8320   -3.5670 hc        1 MOL      0.029991
    159 N14        -4.6910   -1.4610    0.6730 n         1 MOL     -0.130123
    160 C53        -3.8820   -1.9030    1.8570 c3        1 MOL     -0.086819
    161 C54        -4.5720   -1.4990    3.1490 c         1 MOL      0.451090
    162 O24        -4.3280   -2.0790    4.1800 o         1 MOL     -0.553794
    163 C55        -2.4710   -1.2410    1.7560 c3        1 MOL     -0.159176
    164 C56        -1.4250   -2.0820    1.0590 c3        1 MOL     -0.197888
    165 C57        -0.1600   -1.3040    0.6720 c         1 MOL      0.789368
    166 O25         0.7750   -1.9860    0.2870 o         1 MOL     -0.737457
    167 O26        -0.0990   -0.0690    0.6450 o         1 MOL     -0.737457
    168 H71        -4.6080   -0.5340    0.2650 hn        1 MOL      0.017364
    169 H72        -3.8110   -2.9920    1.8570 h1        1 MOL      0.127504
    170 H73        -2.1400   -0.9110    2.7450 hc        1 MOL      0.118656
    171 H74        -2.4870   -0.2550    1.2980 hc        1 MOL      0.118656
    172 H75        -1.8040   -2.5570    0.1410 hc        1 MOL      0.088917
    173 H76        -1.2390   -2.9650    1.6660 hc        1 MOL      0.088917
    174 N15        -5.5180   -0.4990    3.2060 n         1 MOL     -0.108777
    175 C58        -6.1770    0.1610    4.3230 c3        1 MOL     -0.128011
    176 H77        -6.2970    1.2210    4.0990 h1        1 MOL      0.062252
    177 H78        -7.1560   -0.2890    4.4850 h1        1 MOL      0.062252
    178 H79        -5.5710    0.0470    5.2210 h1        1 MOL      0.062252
    179 H80        -5.6840    0.0010    2.3420 hn        1 MOL      0.076798
    180 Ca1         2.5420   -0.1420    0.0800 Ca        1 MOL      1.680386
    181 O27         2.0310    0.1300    2.7090 oh        1 MOL     -0.783126
    182 H81         2.5640    0.3580    3.4760 ho        1 MOL      0.379697
    183 H82         1.2700   -0.3250    3.0640 ho        1 MOL      0.379697
    184 O28         1.1930    0.5140   -2.1560 oh        1 MOL     -0.783126
    185 H83         1.2900   -0.0350   -2.9350 ho        1 MOL      0.379697
    186 H84         1.5910    1.3520   -2.4000 ho        1 MOL      0.379697
    187 O29         4.8790    1.0040    1.7670 oh        1 MOL     -0.783126
    188 H85         4.5630    1.3160    2.6110 ho        1 MOL      0.379697
    189 H86         5.2720    0.1590    1.9530 ho        1 MOL      0.379697
@<TRIPOS>BOND
     1    1    2 1   
     2    1    4 1   
     3    1    5 1   
     4    1    6 1   
     5    2    3 2   
     6    2    7 1   
     7    7    8 1   
     8    7   15 1   
     9    8    9 1   
    10    8   11 1   
    11    8   16 1   
    12    9   10 2   
    13    9   19 1   
    14   11   12 1   
    15   11   17 1   
    16   11   18 1   
    17   12   13 1   
    18   12   14 1   
    19   19   20 1   
    20   19   27 1   
    21   20   21 1   
    22   20   23 1   
    23   20   28 1   
    24   21   22 2   
    25   21   38 1   
    26   23   24 1   
    27   23   25 1   
    28   23   29 1   
    29   24   26 1   
    30   24   30 1   
    31   24   31 1   
    32   25   32 1   
    33   25   33 1   
    34   25   34 1   
    35   26   35 1   
    36   26   36 1   
    37   26   37 1   
    38   38   39 1   
    39   38   46 1   
    40   39   40 1   
    41   39   42 1   
    42   39   47 1   
    43   40   41 2   
    44   40   50 1   
    45   42   43 1   
    46   42   48 1   
    47   42   49 1   
    48   43   44 1   
    49   43   45 1   
    50   50   51 1   
    51   50   54 1   
    52   51   52 1   
    53   51   55 1   
    54   51   56 1   
    55   52   53 2   
    56   52   57 1   
    57   57   58 1   
    58   57   65 1   
    59   58   59 1   
    60   58   61 1   
    61   58   66 1   
    62   59   60 2   
    63   59   69 1   
    64   61   62 1   
    65   61   67 1   
    66   61   68 1   
    67   62   63 1   
    68   62   64 1   
    69   69   70 1   
    70   69   73 1   
    71   70   71 1   
    72   70   74 1   
    73   70   75 1   
    74   71   72 2   
    75   71   76 1   
    76   76   77 1   
    77   76   85 1   
    78   77   78 1   
    79   77   80 1   
    80   77   86 1   
    81   78   79 2   
    82   78   93 1   
    83   80   81 1   
    84   80   87 1   
    85   80   88 1   
    86   81   82 1   
    87   81   89 1   
    88   81   90 1   
    89   82   83 1   
    90   82   84 2   
    91   83   91 1   
    92   83   92 1   
    93   93   94 1   
    94   93  100 1   
    95   94   95 1   
    96   94   97 1   
    97   94  101 1   
    98   95   96 2   
    99   95  109 1   
   100   97   98 1   
   101   97   99 1   
   102   97  102 1   
   103   98  103 1   
   104   98  104 1   
   105   98  105 1   
   106   99  106 1   
   107   99  107 1   
   108   99  108 1   
   109  109  110 1   
   110  109  117 1   
   111  110  111 1   
   112  110  113 1   
   113  110  118 1   
   114  111  112 2   
   115  111  123 1   
   116  113  114 1   
   117  113  119 1   
   118  113  120 1   
   119  114  115 1   
   120  114  116 2   
   121  115  121 1   
   122  115  122 1   
   123  123  124 1   
   124  123  135 1   
   125  124  125 1   
   126  124  127 1   
   127  124  136 1   
   128  125  126 2   
   129  125  144 1   
   130  127  128 1   
   131  127  137 1   
   132  127  138 1   
   133  128  129 ar  
   134  128  130 ar  
   135  129  131 ar  
   136  129  139 1   
   137  130  132 ar  
   138  130  140 1   
   139  131  133 ar  
   140  131  141 1   
   141  132  133 ar  
   142  132  142 1   
   143  133  134 1   
   144  134  143 1   
   145  144  145 1   
   146  144  153 1   
   147  145  146 1   
   148  145  148 1   
   149  145  154 1   
   150  146  147 2   
   151  146  159 1   
   152  148  149 1   
   153  148  155 1   
   154  148  156 1   
   155  149  150 1   
   156  149  157 1   
   157  149  158 1   
   158  150  151 1   
   159  150  152 1   
   160  159  160 1   
   161  159  168 1   
   162  160  161 1   
   163  160  163 1   
   164  160  169 1   
   165  161  162 2   
   166  161  174 1   
   167  163  164 1   
   168  163  170 1   
   169  163  171 1   
   170  164  165 1   
   171  164  172 1   
   172  164  173 1   
   173  165  166 1   
   174  165  167 1   
   175  174  175 1   
   176  174  179 1   
   177  175  176 1   
   178  175  177 1   
   179  175  178 1   
   180  181  182 1   
   181  181  183 1   
   182  184  185 1   
   183  184  186 1   
   184  187  188 1   
   185  187  189 1   
@<TRIPOS>SUBSTRUCTURE
     1 MOL         1 TEMP              0 ****  ****    0 ROOT
