@<TRIPOS>MOLECULE
MOL
  176   174     1     0     0
SMALL
resp


@<TRIPOS>ATOM
      1 C1          0.7900    3.8040    6.3380 c3        1 MOL     -0.317586
      2 C2          0.7130    2.9200    5.0180 c         1 MOL      0.662081
      3 O1          1.7170    2.3690    4.5360 o         1 MOL     -0.554934
      4 H1         -0.2190    4.0170    6.6920 hc        1 MOL      0.083953
      5 H2          1.3370    3.2610    7.1090 hc        1 MOL      0.083953
      6 H3          1.3020    4.7410    6.1190 hc        1 MOL      0.083953
      7 N1         -0.4950    2.8140    4.4550 n         1 MOL     -0.520201
      8 C3         -0.8460    2.4400    3.0740 c3        1 MOL     -0.037704
      9 C4         -0.8170    3.7240    2.2600 c         1 MOL      0.806819
     10 O2         -1.1920    4.7920    2.6820 o         1 MOL     -0.595013
     11 C5         -2.1490    1.6860    3.0240 c3        1 MOL     -0.447714
     12 C6         -2.6200    1.1570    1.6770 c         1 MOL      1.024333
     13 O3         -2.3720    1.8540    0.6800 o         1 MOL     -0.863707
     14 O4         -2.9620    0.0130    1.4530 o         1 MOL     -0.863707
     15 H4         -1.2990    3.0880    5.0030 hn        1 MOL      0.312890
     16 H5         -0.1310    1.7210    2.6690 h1        1 MOL      0.075910
     17 H6         -2.8150    2.5150    3.2760 hc        1 MOL      0.109706
     18 H7         -2.1660    0.8610    3.7380 hc        1 MOL      0.109706
     19 N2         -0.2370    3.6950    1.0470 n         1 MOL     -0.528889
     20 C7         -0.1110    4.8090    0.0710 c3        1 MOL     -0.202921
     21 C8         -1.3920    5.2870   -0.5290 c         1 MOL      0.747018
     22 O5         -1.4250    6.4800   -0.8800 o         1 MOL     -0.610819
     23 C9          0.9090    4.3170   -0.9620 c3        1 MOL      0.065842
     24 C10         1.2500    5.2650   -2.0730 c3        1 MOL     -0.091495
     25 C11         2.5200    4.9020   -2.8590 c3        1 MOL      0.212363
     26 C12         2.8990    6.1300   -3.6290 c3        1 MOL      0.052188
     27 N3          3.9080    5.9130   -4.7300 n4        1 MOL     -0.472658
     28 H8         -0.0590    2.7590    0.7010 hn        1 MOL      0.281935
     29 H9          0.4100    5.6560    0.5280 h1        1 MOL      0.140566
     30 H10         0.6360    3.3600   -1.4110 hc        1 MOL      0.060909
     31 H11         1.8120    4.1430   -0.3670 hc        1 MOL      0.060909
     32 H12         1.4190    6.2630   -1.6590 hc        1 MOL      0.006738
     33 H13         0.3630    5.3260   -2.7090 hc        1 MOL      0.006738
     34 H14         2.2780    4.0710   -3.5230 hc        1 MOL     -0.037480
     35 H15         3.2690    4.5850   -2.1390 hc        1 MOL     -0.037480
     36 H16         3.3160    6.7630   -2.8520 hx        1 MOL      0.078340
     37 H17         1.9900    6.6210   -3.9700 hx        1 MOL      0.078340
     38 H18         4.1680    6.7810   -5.1850 hn        1 MOL      0.353198
     39 H19         4.7640    5.5180   -4.3820 hn        1 MOL      0.353198
     40 H20         3.5270    5.3580   -5.4770 hn        1 MOL      0.353198
     41 N4         -2.4390    4.4400   -0.5180 n         1 MOL     -0.581390
     42 C13        -3.6510    4.5350   -1.3970 c3        1 MOL      0.198623
     43 C14        -4.8940    4.0050   -0.6500 c         1 MOL      0.414979
     44 O6         -6.0780    4.2530   -0.9830 o         1 MOL     -0.557559
     45 C15        -3.5300    3.7820   -2.7320 c3        1 MOL     -0.334323
     46 C16        -3.0500    2.3370   -2.6110 c         1 MOL      0.798850
     47 O7         -3.7170    1.5110   -1.9110 o         1 MOL     -0.775241
     48 O8         -1.9160    1.9620   -3.0380 o         1 MOL     -0.775241
     49 H21        -2.2110    3.5100   -0.2080 hn        1 MOL      0.404826
     50 H22        -3.9160    5.5720   -1.6370 h1        1 MOL      0.076413
     51 H23        -2.7260    4.2850   -3.2600 hc        1 MOL      0.087853
     52 H24        -4.5040    3.8470   -3.2090 hc        1 MOL      0.087853
     53 N5         -4.7250    3.2220    0.4290 n         1 MOL     -0.196494
     54 C17        -5.8420    2.7180    1.2690 c3        1 MOL     -0.088073
     55 C18        -6.5900    1.4270    0.9290 c         1 MOL      0.548542
     56 O9         -7.4840    0.9240    1.5600 o         1 MOL     -0.587636
     57 H25        -3.7830    2.9500    0.6680 hn        1 MOL      0.104142
     58 H26        -6.5650    3.4950    1.5230 h1        1 MOL      0.075839
     59 H27        -5.4050    2.5070    2.2530 h1        1 MOL      0.075839
     60 N6         -6.1870    0.7790   -0.1790 n         1 MOL     -0.302485
     61 C19        -6.7920   -0.4080   -0.8770 c3        1 MOL      0.011740
     62 C20        -6.7880   -1.7310   -0.0110 c         1 MOL      0.362281
     63 O10        -7.3630   -2.7620   -0.3730 o         1 MOL     -0.533435
     64 C21        -6.3400   -0.5820   -2.3200 c3        1 MOL     -0.440809
     65 C22        -5.0230   -1.3450   -2.5250 c         1 MOL      0.802073
     66 N7         -4.7670   -1.8450   -3.7340 n         1 MOL     -0.779037
     67 O11        -4.1680   -1.3390   -1.6360 o         1 MOL     -0.597896
     68 H28        -5.3280    1.0450   -0.6490 hn        1 MOL      0.264014
     69 H29        -7.8340   -0.0820   -0.9100 h1        1 MOL      0.129374
     70 H30        -6.3210    0.3650   -2.8630 hc        1 MOL      0.142815
     71 H31        -7.1870   -1.1310   -2.7340 hc        1 MOL      0.142815
     72 H32        -5.4430   -1.8640   -4.4860 hn        1 MOL      0.363455
     73 H33        -3.8640   -2.3070   -3.7810 hn        1 MOL      0.363455
     74 N8         -6.0940   -1.7030    1.1170 n         1 MOL     -0.036783
     75 C23        -6.2630   -2.7650    2.2020 c3        1 MOL     -0.267061
     76 C24        -4.9480   -3.5790    2.3410 c         1 MOL      0.552731
     77 O12        -4.8330   -4.4720    3.1930 o         1 MOL     -0.570038
     78 H34        -5.6460   -0.8250    1.3350 hn        1 MOL      0.213907
     79 H35        -6.9920   -3.5330    1.9510 h1        1 MOL      0.140953
     80 H36        -6.5060   -2.2560    3.1380 h1        1 MOL      0.140953
     81 N9         -3.9000   -3.3020    1.5290 n         1 MOL     -0.318363
     82 C25        -2.6090   -4.0510    1.6290 c3        1 MOL      0.075253
     83 C26        -1.3990   -3.2000    1.2130 c         1 MOL      0.541620
     84 O13        -1.4680   -2.2980    0.4050 o         1 MOL     -0.509056
     85 C27        -2.7600   -5.2670    0.7430 c3        1 MOL     -0.176132
     86 C28        -2.7180   -5.1310   -0.7830 ca        1 MOL     -0.069124
     87 C29        -1.4340   -5.0390   -1.3250 ca        1 MOL     -0.017797
     88 C30        -3.8770   -5.0150   -1.5790 ca        1 MOL     -0.017797
     89 C31        -1.2670   -4.8570   -2.7040 ca        1 MOL     -0.371476
     90 C32        -3.7250   -4.8470   -2.9440 ca        1 MOL     -0.371476
     91 C33        -2.4560   -4.6650   -3.5110 ca        1 MOL      0.416106
     92 O14        -2.3130   -4.2740   -4.7570 oh        1 MOL     -0.501103
     93 H37        -4.0590   -2.6330    0.7980 hn        1 MOL      0.186037
     94 H38        -2.3100   -4.3700    2.6350 h1        1 MOL      0.077273
     95 H39        -3.7210   -5.7320    0.9820 hc        1 MOL      0.078969
     96 H40        -2.0370   -5.9950    1.1160 hc        1 MOL      0.078969
     97 H41        -0.5420   -5.2470   -0.7480 ha        1 MOL      0.135515
     98 H42        -4.8710   -5.0990   -1.1700 ha        1 MOL      0.135515
     99 H43        -0.2920   -4.7950   -3.1480 ha        1 MOL      0.158307
    100 H44        -4.6020   -4.6240   -3.5350 ha        1 MOL      0.158307
    101 H45        -1.3910   -4.1390   -4.9930 ho        1 MOL      0.363009
    102 N10        -0.2390   -3.6180    1.7510 n         1 MOL     -0.759979
    103 C34         1.0310   -2.9670    1.7480 c3        1 MOL      0.295441
    104 C35         2.1760   -3.7350    0.9850 c         1 MOL      0.409125
    105 O15         2.2850   -4.9580    1.1190 o         1 MOL     -0.540912
    106 C36         1.4440   -2.4580    3.1230 c3        1 MOL      0.013820
    107 C37         0.4200   -1.3290    3.6160 c3        1 MOL      0.032453
    108 C38         2.9090   -1.9640    3.1870 c3        1 MOL     -0.246550
    109 C39         0.5820   -0.8970    5.0500 c3        1 MOL     -0.160028
    110 H46        -0.3570   -4.4780    2.2810 hn        1 MOL      0.383020
    111 H47         0.9160   -2.0440    1.1780 h1        1 MOL      0.072437
    112 H48         1.3000   -3.3190    3.7840 hc        1 MOL     -0.006445
    113 H49        -0.5910   -1.7140    3.5760 hc        1 MOL      0.066228
    114 H50         0.4710   -0.4960    2.9090 hc        1 MOL      0.066228
    115 H51         3.5470   -2.8230    3.0080 hc        1 MOL      0.067936
    116 H52         3.1270   -1.2250    2.4200 hc        1 MOL      0.067936
    117 H53         3.2390   -1.6740    4.1790 hc        1 MOL      0.067936
    118 H54         0.1930   -1.6070    5.7790 hc        1 MOL      0.038389
    119 H55         1.6150   -0.6350    5.2670 hc        1 MOL      0.038389
    120 H56        -0.0310   -0.0190    5.1970 hc        1 MOL      0.038389
    121 N11         3.0510   -2.9830    0.3180 n         1 MOL     -0.063248
    122 C40         4.2370   -3.5720   -0.2970 c3        1 MOL      0.084452
    123 C41         5.5000   -2.8840    0.2640 c         1 MOL      0.361678
    124 O16         5.4420   -1.9220    1.0490 o         1 MOL     -0.353398
    125 C42         4.2360   -3.3670   -1.8620 c3        1 MOL     -0.065200
    126 O17         4.0540   -2.0200   -2.1430 oh        1 MOL     -0.409617
    127 H57         2.9720   -1.9760    0.2400 hn        1 MOL     -0.044040
    128 H58         4.3030   -4.6400   -0.0940 h1        1 MOL      0.067336
    129 H59         3.3800   -3.9550   -2.1960 h1        1 MOL      0.058520
    130 H60         5.1180   -3.7300   -2.4000 h1        1 MOL      0.058520
    131 H61         3.3250   -1.9560   -2.7720 ho        1 MOL      0.382703
    132 N12         6.6770   -3.3570   -0.1610 n         1 MOL     -0.363659
    133 C43         8.0040   -2.8760    0.2160 c3        1 MOL      0.071735
    134 C44         8.2210   -1.4760   -0.4430 c         1 MOL      0.501291
    135 O18         8.8180   -0.5770    0.1810 o         1 MOL     -0.504418
    136 C45         9.1080   -3.8050   -0.3490 c3        1 MOL     -0.233960
    137 H62         6.6750   -4.1590   -0.7860 hn        1 MOL      0.251184
    138 H63         8.0880   -2.8840    1.3050 h1        1 MOL      0.107535
    139 H64        10.0170   -3.5450    0.2000 hc        1 MOL      0.081814
    140 H65         8.9380   -4.8600   -0.1090 hc        1 MOL      0.081814
    141 H66         9.2540   -3.6950   -1.4190 hc        1 MOL      0.081814
    142 N13         7.6810   -1.2620   -1.6820 n         1 MOL     -0.541765
    143 C46         7.4720    0.1060   -2.2800 c3        1 MOL      0.271037
    144 C47         6.5300    1.0560   -1.4980 c         1 MOL      0.242622
    145 O19         6.6190    2.2450   -1.6480 o         1 MOL     -0.518202
    146 C48         6.8070    0.1380   -3.6550 c3        1 MOL     -0.263482
    147 H67         7.2710   -2.0500   -2.1650 hn        1 MOL      0.318275
    148 H68         8.4130    0.6290   -2.4380 h1        1 MOL      0.068420
    149 H69         5.7550   -0.1590   -3.5680 hc        1 MOL      0.067851
    150 H70         7.0310    1.1210   -4.0590 hc        1 MOL      0.067851
    151 H71         7.3950   -0.5560   -4.2520 hc        1 MOL      0.067851
    152 N14         5.5490    0.5940   -0.7340 n         1 MOL      0.113505
    153 C49         4.6990    1.4590    0.1070 c3        1 MOL     -0.238084
    154 C50         5.3690    1.7480    1.4710 c         1 MOL      0.497558
    155 O20         5.1640    2.8020    2.0610 o         1 MOL     -0.542980
    156 C51         3.3090    0.7750    0.2270 c3        1 MOL      0.278223
    157 C52         2.5340    0.9070   -1.0220 c3        1 MOL     -0.020490
    158 C53         1.1140    0.4110   -0.7470 c         1 MOL      0.665234
    159 O21         0.2530    0.9470    0.0110 o         1 MOL     -0.773451
    160 O22         0.6740   -0.6300   -1.3120 o         1 MOL     -0.773451
    161 H72         5.3590   -0.3810   -0.5690 hn        1 MOL     -0.088409
    162 H73         4.5350    2.4160   -0.3840 h1        1 MOL      0.111303
    163 H74         2.8100    1.2880    1.0470 hc        1 MOL     -0.004497
    164 H75         3.5560   -0.2550    0.4690 hc        1 MOL     -0.004497
    165 H76         2.9540    0.3060   -1.8260 hc        1 MOL     -0.051465
    166 H77         2.4110    1.9840   -1.1380 hc        1 MOL     -0.051465
    167 N15         6.2150    0.8570    1.9910 n         1 MOL     -0.087582
    168 C54         6.9510    1.0040    3.2480 c3        1 MOL     -0.256088
    169 H78         7.9860    1.2690    3.0340 h1        1 MOL      0.108489
    170 H79         6.4930    1.7890    3.8480 h1        1 MOL      0.108489
    171 H80         6.9250    0.0630    3.7980 h1        1 MOL      0.108489
    172 H81         6.1460   -0.0500    1.5430 hn        1 MOL      0.099197
    173 Ca1        -1.8380   -0.1520   -1.0400 Ca        1 MOL      1.829842
    174 O23        -1.6990   -1.2520   -3.3690 oh        1 MOL     -0.948553
    175 H82        -1.9400   -0.6230   -4.0390 ho        1 MOL      0.443851
    176 H83        -0.9940   -1.7670   -3.7540 ho        1 MOL      0.443851
@<TRIPOS>BOND
     1    1    2 1   
     2    1    4 1   
     3    1    5 1   
     4    1    6 1   
     5    2    3 2   
     6    2    7 1   
     7    7    8 1   
     8    7   15 1   
     9    8    9 1   
    10    8   11 1   
    11    8   16 1   
    12    9   10 2   
    13    9   19 1   
    14   11   12 1   
    15   11   17 1   
    16   11   18 1   
    17   12   13 1   
    18   12   14 1   
    19   19   20 1   
    20   19   28 1   
    21   20   21 1   
    22   20   23 1   
    23   20   29 1   
    24   21   22 2   
    25   21   41 1   
    26   23   24 1   
    27   23   30 1   
    28   23   31 1   
    29   24   25 1   
    30   24   32 1   
    31   24   33 1   
    32   25   26 1   
    33   25   34 1   
    34   25   35 1   
    35   26   27 1   
    36   26   36 1   
    37   26   37 1   
    38   27   38 1   
    39   27   39 1   
    40   27   40 1   
    41   41   42 1   
    42   41   49 1   
    43   42   43 1   
    44   42   45 1   
    45   42   50 1   
    46   43   44 2   
    47   43   53 1   
    48   45   46 1   
    49   45   51 1   
    50   45   52 1   
    51   46   47 1   
    52   46   48 1   
    53   53   54 1   
    54   53   57 1   
    55   54   55 1   
    56   54   58 1   
    57   54   59 1   
    58   55   56 2   
    59   55   60 1   
    60   60   61 1   
    61   60   68 1   
    62   61   62 1   
    63   61   64 1   
    64   61   69 1   
    65   62   63 2   
    66   62   74 1   
    67   64   65 1   
    68   64   70 1   
    69   64   71 1   
    70   65   66 1   
    71   65   67 2   
    72   66   72 1   
    73   66   73 1   
    74   74   75 1   
    75   74   78 1   
    76   75   76 1   
    77   75   79 1   
    78   75   80 1   
    79   76   77 2   
    80   76   81 1   
    81   81   82 1   
    82   81   93 1   
    83   82   83 1   
    84   82   85 1   
    85   82   94 1   
    86   83   84 2   
    87   83  102 1   
    88   85   86 1   
    89   85   95 1   
    90   85   96 1   
    91   86   87 ar  
    92   86   88 ar  
    93   87   89 ar  
    94   87   97 1   
    95   88   90 ar  
    96   88   98 1   
    97   89   91 ar  
    98   89   99 1   
    99   90   91 ar  
   100   90  100 1   
   101   91   92 1   
   102   92  101 1   
   103  102  103 1   
   104  102  110 1   
   105  103  104 1   
   106  103  106 1   
   107  103  111 1   
   108  104  105 2   
   109  104  121 1   
   110  106  107 1   
   111  106  108 1   
   112  106  112 1   
   113  107  109 1   
   114  107  113 1   
   115  107  114 1   
   116  108  115 1   
   117  108  116 1   
   118  108  117 1   
   119  109  118 1   
   120  109  119 1   
   121  109  120 1   
   122  121  122 1   
   123  121  127 1   
   124  122  123 1   
   125  122  125 1   
   126  122  128 1   
   127  123  124 2   
   128  123  132 1   
   129  125  126 1   
   130  125  129 1   
   131  125  130 1   
   132  126  131 1   
   133  132  133 1   
   134  132  137 1   
   135  133  134 1   
   136  133  136 1   
   137  133  138 1   
   138  134  135 2   
   139  134  142 1   
   140  136  139 1   
   141  136  140 1   
   142  136  141 1   
   143  142  143 1   
   144  142  147 1   
   145  143  144 1   
   146  143  146 1   
   147  143  148 1   
   148  144  145 2   
   149  144  152 1   
   150  146  149 1   
   151  146  150 1   
   152  146  151 1   
   153  152  153 1   
   154  152  161 1   
   155  153  154 1   
   156  153  156 1   
   157  153  162 1   
   158  154  155 2   
   159  154  167 1   
   160  156  157 1   
   161  156  163 1   
   162  156  164 1   
   163  157  158 1   
   164  157  165 1   
   165  157  166 1   
   166  158  159 1   
   167  158  160 1   
   168  167  168 1   
   169  167  172 1   
   170  168  169 1   
   171  168  170 1   
   172  168  171 1   
   173  174  175 1   
   174  174  176 1   
@<TRIPOS>SUBSTRUCTURE
     1 MOL         1 TEMP              0 ****  ****    0 ROOT
