@<TRIPOS>MOLECULE
MOL
  172   171     1     0     0
SMALL
resp


@<TRIPOS>ATOM
      1 C1         -0.4130    1.5810    6.0930 c3        1 MOL     -0.378442
      2 C2         -0.7440    1.6100    4.5940 c         1 MOL      0.807432
      3 O1         -0.0110    2.1940    3.7960 o         1 MOL     -0.611686
      4 H1         -1.2990    1.8560    6.6650 hc        1 MOL      0.090363
      5 H2         -0.0950    0.5770    6.3770 hc        1 MOL      0.090363
      6 H3          0.3890    2.2890    6.3030 hc        1 MOL      0.090363
      7 N1         -1.8800    1.0190    4.1540 n         1 MOL     -0.731804
      8 C3         -2.3700    1.3500    2.7890 c3        1 MOL      0.370036
      9 C4         -2.8920    2.7920    2.6100 c         1 MOL      0.490615
     10 O2         -3.8120    3.2060    3.3460 o         1 MOL     -0.569661
     11 C5         -3.4990    0.2520    2.4430 c3        1 MOL     -0.481413
     12 C6         -4.2540    0.6040    1.1580 c         1 MOL      0.802919
     13 O3         -5.4790    0.4090    1.0930 o         1 MOL     -0.690925
     14 O4         -3.6210    0.8970    0.1240 o         1 MOL     -0.690925
     15 H4         -2.4210    0.4730    4.8180 hn        1 MOL      0.342149
     16 H5         -1.5630    1.2550    2.0580 h1        1 MOL     -0.050793
     17 H6         -4.2240    0.3630    3.2560 hc        1 MOL      0.109932
     18 H7         -3.1480   -0.7730    2.4620 hc        1 MOL      0.109932
     19 N2         -2.3880    3.5320    1.5830 n         1 MOL     -0.425733
     20 C7         -2.7530    4.9590    1.3090 c3        1 MOL      0.282575
     21 C8         -3.8120    5.0780    0.2580 c         1 MOL      0.318884
     22 O5         -4.4600    6.1450    0.1300 o         1 MOL     -0.591774
     23 C9         -1.5130    5.7080    0.8620 c3        1 MOL     -0.319783
     24 H8         -1.6200    3.1420    1.0480 hn        1 MOL      0.263877
     25 H9         -3.1740    5.3260    2.2430 h1        1 MOL      0.027989
     26 H10        -1.0810    5.4580   -0.1100 hc        1 MOL      0.083456
     27 H11        -1.8450    6.7460    0.9160 hc        1 MOL      0.083456
     28 H12        -0.6620    5.5180    1.5240 hc        1 MOL      0.083456
     29 N3         -4.0230    4.1420   -0.6060 n         1 MOL     -0.060115
     30 C10        -4.8210    4.2290   -1.7700 c3        1 MOL     -0.034599
     31 C11        -6.1670    3.5000   -1.6800 c         1 MOL      0.467217
     32 O6         -7.0150    3.7740   -2.5440 o         1 MOL     -0.550833
     33 C12        -3.9460    3.8880   -2.9390 c3        1 MOL     -0.013890
     34 C13        -3.1550    2.5010   -2.8200 c         1 MOL      0.744047
     35 O7         -3.7500    1.4120   -2.6880 o         1 MOL     -0.766034
     36 O8         -1.9210    2.4760   -2.9890 o         1 MOL     -0.766034
     37 H13        -3.4160    3.3620   -0.3920 hn        1 MOL      0.099833
     38 H14        -5.0070    5.2890   -1.9540 h1        1 MOL      0.093414
     39 H15        -3.1660    4.6420   -2.9560 hc        1 MOL     -0.001548
     40 H16        -4.5720    3.9740   -3.8310 hc        1 MOL     -0.001548
     41 N4         -6.4560    2.6240   -0.7060 n         1 MOL     -0.332374
     42 C14        -7.8010    1.9550   -0.5740 c3        1 MOL     -0.141600
     43 C15        -7.9720    0.5390   -1.1380 c         1 MOL      0.469651
     44 O9         -9.0470   -0.0660   -1.2410 o         1 MOL     -0.594994
     45 H17        -5.7270    2.2620   -0.1110 hn        1 MOL      0.239225
     46 H18        -8.5760    2.5500   -1.0520 h1        1 MOL      0.102510
     47 H19        -8.0300    1.8430    0.4880 h1        1 MOL      0.102510
     48 N5         -6.8530   -0.0660   -1.4190 n         1 MOL     -0.093180
     49 C16        -6.8910   -1.4710   -1.8030 c3        1 MOL     -0.035232
     50 C17        -6.7990   -2.5150   -0.6340 c         1 MOL      0.439208
     51 O10        -7.3860   -3.6010   -0.6820 o         1 MOL     -0.588190
     52 C18        -5.7850   -1.7000   -2.8720 c3        1 MOL     -0.192166
     53 C19        -4.5570   -2.3780   -2.2430 c         1 MOL      0.568989
     54 N6         -4.5570   -3.6790   -2.3310 n         1 MOL     -0.595741
     55 O11        -3.6440   -1.8210   -1.6260 o         1 MOL     -0.507587
     56 H20        -5.9680    0.4140   -1.4530 hn        1 MOL      0.165264
     57 H21        -7.8490   -1.7220   -2.2590 h1        1 MOL      0.105292
     58 H22        -5.4620   -0.7000   -3.1700 hc        1 MOL      0.059679
     59 H23        -6.1820   -2.2580   -3.7160 hc        1 MOL      0.059679
     60 H24        -5.2110   -4.1000   -2.9680 hn        1 MOL      0.302751
     61 H25        -3.7560   -4.2110   -2.0130 hn        1 MOL      0.302751
     62 N7         -6.2170   -2.0830    0.4470 n         1 MOL     -0.137954
     63 C20        -6.0560   -2.9340    1.7170 c3        1 MOL     -0.019420
     64 C21        -4.7850   -3.8060    1.6740 c         1 MOL      0.417815
     65 O12        -4.7130   -4.7760    2.4660 o         1 MOL     -0.561915
     66 H26        -5.9860   -1.1000    0.5190 hn        1 MOL      0.188784
     67 H27        -6.9660   -3.4700    1.9710 h1        1 MOL      0.067832
     68 H28        -5.9780   -2.2300    2.5490 h1        1 MOL      0.067832
     69 N8         -3.7040   -3.5690    0.8800 n         1 MOL     -0.072217
     70 C22        -2.3860   -4.2120    0.9440 c3        1 MOL     -0.013823
     71 C23        -1.2440   -3.2340    0.7620 c         1 MOL      0.390678
     72 O13        -1.3700   -2.1590    0.2390 o         1 MOL     -0.460850
     73 C24        -2.1910   -5.2990   -0.1370 c3        1 MOL      0.281823
     74 C25        -3.3390   -6.2150   -0.2250 c3        1 MOL     -0.423311
     75 O14        -2.1900   -4.8190   -1.4940 oh        1 MOL     -0.567977
     76 H29        -3.7690   -2.8100    0.2090 hn        1 MOL      0.011223
     77 H30        -2.2790   -4.7370    1.8910 h1        1 MOL      0.059191
     78 H31        -1.2100   -5.7590    0.0000 h1        1 MOL      0.008988
     79 H32        -1.2860   -4.5550   -1.6620 ho        1 MOL      0.403447
     80 H33        -3.2620   -6.8900   -1.0870 hc        1 MOL      0.114686
     81 H34        -3.3440   -6.7880    0.7000 hc        1 MOL      0.114686
     82 H35        -4.3370   -5.7790   -0.3200 hc        1 MOL      0.114686
     83 N9         -0.0980   -3.6180    1.3390 n         1 MOL     -0.309706
     84 C26         1.0340   -2.7070    1.4130 c3        1 MOL     -0.037840
     85 C27         1.8670   -3.0140    0.2030 c         1 MOL      0.422593
     86 O15         2.3800   -4.1060    0.0110 o         1 MOL     -0.566452
     87 C28         1.7540   -2.9990    2.8320 c3        1 MOL     -0.090593
     88 C29         0.8430   -2.6240    4.0380 c3        1 MOL      0.160847
     89 C30         3.2110   -2.3740    2.8020 c3        1 MOL      0.100403
     90 C31         1.4290   -3.2650    5.3150 c3        1 MOL     -0.226757
     91 H36         0.0400   -4.5670    1.6480 hn        1 MOL      0.238466
     92 H37         0.7020   -1.6670    1.3720 h1        1 MOL      0.129178
     93 H38         1.8970   -4.0790    2.8750 hc        1 MOL      0.032885
     94 H39        -0.1930   -2.9370    3.9030 hc        1 MOL     -0.019375
     95 H40         0.8350   -1.5380    4.0680 hc        1 MOL     -0.019375
     96 H41         3.8950   -2.8340    2.0850 hc        1 MOL     -0.022343
     97 H42         3.1420   -1.2920    2.6920 hc        1 MOL     -0.022343
     98 H43         3.7620   -2.6140    3.7070 hc        1 MOL     -0.022343
     99 H44         0.6580   -3.2170    6.0780 hc        1 MOL      0.042390
    100 H45         1.7860   -4.2890    5.1780 hc        1 MOL      0.042390
    101 H46         2.2160   -2.6120    5.6800 hc        1 MOL      0.042390
    102 N10         2.0120   -1.9140   -0.5140 n         1 MOL     -0.147478
    103 C32         3.0890   -1.7340   -1.4530 c3        1 MOL      0.057191
    104 C33         4.4570   -1.4080   -0.8350 c         1 MOL      0.516123
    105 O16         4.5720   -1.1080    0.3330 o         1 MOL     -0.376919
    106 C34         2.6760   -0.5720   -2.3320 c3        1 MOL     -0.410877
    107 C35         1.3000   -0.8530   -2.9630 c         1 MOL      0.733266
    108 O17         1.0540   -1.8880   -3.5970 o         1 MOL     -0.666093
    109 O18         0.4150    0.0590   -2.7590 o         1 MOL     -0.666093
    110 H47         1.3540   -1.1640   -0.3730 hn        1 MOL      0.183997
    111 H48         3.1830   -2.6580   -2.0290 h1        1 MOL      0.044554
    112 H49         3.3260   -0.5590   -3.2140 hc        1 MOL      0.105847
    113 H50         2.6340    0.3490   -1.7530 hc        1 MOL      0.105847
    114 N11         5.4300   -1.4550   -1.7300 n         1 MOL     -0.744933
    115 C36         6.7520   -1.0320   -1.2830 c3        1 MOL      0.551787
    116 C37         6.9050    0.4240   -0.8320 c         1 MOL      0.295403
    117 O19         7.4400    0.5470    0.2250 o         1 MOL     -0.478356
    118 C38         7.8290   -1.3590   -2.3470 c3        1 MOL     -0.107905
    119 C39         9.2970   -1.1690   -1.9350 ca        1 MOL     -0.036897
    120 C40         9.6560   -1.3510   -0.5670 ca        1 MOL     -0.074056
    121 C41        10.2160   -0.6320   -2.8750 ca        1 MOL     -0.074056
    122 C42        11.0230   -1.3080   -0.1850 ca        1 MOL     -0.168548
    123 C43        11.5680   -0.4550   -2.4070 ca        1 MOL     -0.168548
    124 C44        11.9370   -0.7580   -1.1070 ca        1 MOL     -0.063879
    125 H51         5.2490   -1.7950   -2.6640 hn        1 MOL      0.360176
    126 H52         6.8400   -1.6700   -0.4100 h1        1 MOL     -0.005764
    127 H53         7.5830   -0.7420   -3.2100 hc        1 MOL      0.022946
    128 H54         7.6680   -2.3970   -2.6330 hc        1 MOL      0.022946
    129 H55         8.9680   -1.8060    0.1260 ha        1 MOL      0.095282
    130 H56         9.9720   -0.4600   -3.9140 ha        1 MOL      0.095282
    131 H57        11.2580   -1.5690    0.8250 ha        1 MOL      0.119031
    132 H58        12.3220   -0.0140   -3.0600 ha        1 MOL      0.119031
    133 H59        12.9470   -0.5150   -0.8240 ha        1 MOL      0.087137
    134 N12         6.4680    1.4670   -1.5710 n         1 MOL     -0.039464
    135 C45         6.4790    2.8080   -1.0270 c3        1 MOL     -0.044706
    136 C46         5.6330    3.0020    0.3280 c         1 MOL      0.347103
    137 O20         6.0630    3.7650    1.1560 o         1 MOL     -0.491535
    138 C47         5.9470    3.6790   -2.2130 c3        1 MOL     -0.144011
    139 C48         5.0280    2.6870   -2.9650 c3        1 MOL      0.033210
    140 C49         5.9090    1.4180   -2.8740 c3        1 MOL     -0.127262
    141 H60         7.5330    3.0740   -0.9320 h1        1 MOL      0.078796
    142 H61         5.4460    4.5840   -1.8640 hc        1 MOL      0.070474
    143 H62         6.8550    3.9170   -2.7740 hc        1 MOL      0.070474
    144 H63         4.0630    2.5860   -2.4700 hc        1 MOL      0.025272
    145 H64         4.9370    3.1310   -3.9670 hc        1 MOL      0.025272
    146 H65         5.3910    0.5080   -3.1630 h1        1 MOL      0.043887
    147 H66         6.7440    1.6700   -3.5290 h1        1 MOL      0.043887
    148 N13         4.5880    2.2150    0.5350 n         1 MOL     -0.090087
    149 C50         3.8640    2.0590    1.8290 c3        1 MOL     -0.331715
    150 C51         4.6380    1.4850    2.9670 c         1 MOL      0.591846
    151 O21         4.5570    1.9550    4.1110 o         1 MOL     -0.560345
    152 C52         2.5210    1.3490    1.5680 c3        1 MOL      0.009287
    153 C53         1.5590    2.2050    0.7900 c3        1 MOL     -0.052047
    154 C54         0.3710    1.5340    0.1830 c         1 MOL      0.717503
    155 O22         0.4030    0.3300   -0.1110 o         1 MOL     -0.714950
    156 O23        -0.6970    2.1780   -0.0420 o         1 MOL     -0.714950
    157 H67         4.4140    1.5500   -0.2110 hn        1 MOL      0.180293
    158 H68         3.6550    3.0570    2.2260 h1        1 MOL      0.154236
    159 H69         2.1090    1.2110    2.5710 hc        1 MOL      0.055580
    160 H70         2.6870    0.3640    1.1400 hc        1 MOL      0.055580
    161 H71         1.9740    2.7810   -0.0410 hc        1 MOL      0.039167
    162 H72         1.2420    3.0040    1.4610 hc        1 MOL      0.039167
    163 N14         5.5410    0.5140    2.6270 n         1 MOL     -0.140616
    164 C55         6.4300   -0.1790    3.5990 c3        1 MOL     -0.282553
    165 H73         7.3300   -0.5200    3.0870 h1        1 MOL      0.105323
    166 H74         6.7060    0.5120    4.3960 h1        1 MOL      0.105323
    167 H75         5.9080   -1.0350    4.0240 h1        1 MOL      0.105323
    168 H76         5.3210    0.0640    1.7500 hn        1 MOL      0.101036
    169 Ca1        -1.8190    0.1520   -1.4650 Ca        1 MOL      1.723490
    170 O24        -1.4320   -1.7860   -3.7820 oh        1 MOL     -0.942402
    171 H77        -1.5940   -1.9290   -4.7120 ho        1 MOL      0.409914
    172 H78        -0.4800   -1.8560   -3.6930 ho        1 MOL      0.409914
@<TRIPOS>BOND
     1    1    2 1   
     2    1    4 1   
     3    1    5 1   
     4    1    6 1   
     5    2    3 2   
     6    2    7 1   
     7    7    8 1   
     8    7   15 1   
     9    8    9 1   
    10    8   11 1   
    11    8   16 1   
    12    9   10 2   
    13    9   19 1   
    14   11   12 1   
    15   11   17 1   
    16   11   18 1   
    17   12   13 1   
    18   12   14 1   
    19   19   20 1   
    20   19   24 1   
    21   20   21 1   
    22   20   23 1   
    23   20   25 1   
    24   21   22 2   
    25   21   29 1   
    26   23   26 1   
    27   23   27 1   
    28   23   28 1   
    29   29   30 1   
    30   29   37 1   
    31   30   31 1   
    32   30   33 1   
    33   30   38 1   
    34   31   32 2   
    35   31   41 1   
    36   33   34 1   
    37   33   39 1   
    38   33   40 1   
    39   34   35 1   
    40   34   36 1   
    41   41   42 1   
    42   41   45 1   
    43   42   43 1   
    44   42   46 1   
    45   42   47 1   
    46   43   44 2   
    47   43   48 1   
    48   48   49 1   
    49   48   56 1   
    50   49   50 1   
    51   49   52 1   
    52   49   57 1   
    53   50   51 2   
    54   50   62 1   
    55   52   53 1   
    56   52   58 1   
    57   52   59 1   
    58   53   54 1   
    59   53   55 2   
    60   54   60 1   
    61   54   61 1   
    62   62   63 1   
    63   62   66 1   
    64   63   64 1   
    65   63   67 1   
    66   63   68 1   
    67   64   65 2   
    68   64   69 1   
    69   69   70 1   
    70   69   76 1   
    71   70   71 1   
    72   70   73 1   
    73   70   77 1   
    74   71   72 2   
    75   71   83 1   
    76   73   74 1   
    77   73   75 1   
    78   73   78 1   
    79   74   80 1   
    80   74   81 1   
    81   74   82 1   
    82   75   79 1   
    83   83   84 1   
    84   83   91 1   
    85   84   85 1   
    86   84   87 1   
    87   84   92 1   
    88   85   86 2   
    89   85  102 1   
    90   87   88 1   
    91   87   89 1   
    92   87   93 1   
    93   88   90 1   
    94   88   94 1   
    95   88   95 1   
    96   89   96 1   
    97   89   97 1   
    98   89   98 1   
    99   90   99 1   
   100   90  100 1   
   101   90  101 1   
   102  102  103 1   
   103  102  110 1   
   104  103  104 1   
   105  103  106 1   
   106  103  111 1   
   107  104  105 2   
   108  104  114 1   
   109  106  107 1   
   110  106  112 1   
   111  106  113 1   
   112  107  108 1   
   113  107  109 1   
   114  114  115 1   
   115  114  125 1   
   116  115  116 1   
   117  115  118 1   
   118  115  126 1   
   119  116  117 2   
   120  116  134 1   
   121  118  119 1   
   122  118  127 1   
   123  118  128 1   
   124  119  120 ar  
   125  119  121 ar  
   126  120  122 ar  
   127  120  129 1   
   128  121  123 ar  
   129  121  130 1   
   130  122  124 ar  
   131  122  131 1   
   132  123  124 ar  
   133  123  132 1   
   134  124  133 1   
   135  134  135 1   
   136  134  140 1   
   137  135  136 1   
   138  135  138 1   
   139  135  141 1   
   140  136  137 2   
   141  136  148 1   
   142  138  139 1   
   143  138  142 1   
   144  138  143 1   
   145  139  140 1   
   146  139  144 1   
   147  139  145 1   
   148  140  146 1   
   149  140  147 1   
   150  148  149 1   
   151  148  157 1   
   152  149  150 1   
   153  149  152 1   
   154  149  158 1   
   155  150  151 2   
   156  150  163 1   
   157  152  153 1   
   158  152  159 1   
   159  152  160 1   
   160  153  154 1   
   161  153  161 1   
   162  153  162 1   
   163  154  155 1   
   164  154  156 1   
   165  163  164 1   
   166  163  168 1   
   167  164  165 1   
   168  164  166 1   
   169  164  167 1   
   170  170  171 1   
   171  170  172 1   
@<TRIPOS>SUBSTRUCTURE
     1 MOL         1 TEMP              0 ****  ****    0 ROOT
