@<TRIPOS>MOLECULE
MOL
  175   173     1     0     0
SMALL
resp


@<TRIPOS>ATOM
      1 C1          0.6180    4.6340    5.0910 c3        1 MOL     -0.389277
      2 C2         -0.1020    4.1360    3.8290 c         1 MOL      0.757462
      3 O1          0.5250    4.0970    2.7980 o         1 MOL     -0.548530
      4 H1          0.7990    3.7940    5.7610 hc        1 MOL      0.091309
      5 H2          1.5690    5.0870    4.8120 hc        1 MOL      0.091309
      6 H3         -0.0040    5.3740    5.5960 hc        1 MOL      0.091309
      7 N1         -1.3980    3.8900    3.8860 n         1 MOL     -0.742271
      8 C3         -2.1780    3.3810    2.7200 c3        1 MOL      0.260069
      9 C4         -2.3710    4.5210    1.7330 c         1 MOL      0.698470
     10 O2         -2.7190    5.6360    2.1220 o         1 MOL     -0.625984
     11 C5         -3.5330    2.7810    3.0960 c3        1 MOL     -0.467642
     12 C6         -4.2310    2.2040    1.8320 c         1 MOL      0.699352
     13 O3         -5.4420    1.9780    1.8190 o         1 MOL     -0.650684
     14 O4         -3.6180    1.9530    0.7730 o         1 MOL     -0.650684
     15 H4         -1.8480    3.9900    4.7770 hn        1 MOL      0.349501
     16 H5         -1.6600    2.5330    2.2540 h1        1 MOL      0.093334
     17 H6         -4.1550    3.5310    3.5870 hc        1 MOL      0.110281
     18 H7         -3.4250    1.9340    3.7720 hc        1 MOL      0.110281
     19 N2         -2.1670    4.2900    0.4320 n         1 MOL     -0.607755
     20 C7         -2.2130    5.1960   -0.7170 c3        1 MOL      0.303941
     21 C8         -3.3230    4.9320   -1.7490 c         1 MOL      0.322205
     22 O5         -3.5670    5.7440   -2.6840 o         1 MOL     -0.553377
     23 C9         -0.8980    5.1660   -1.4450 c3        1 MOL     -0.359984
     24 H8         -1.9780    3.3360    0.1380 hn        1 MOL      0.486159
     25 H9         -2.3230    6.1760   -0.2320 h1        1 MOL      0.014047
     26 H10        -0.9560    5.9130   -2.2460 hc        1 MOL      0.100393
     27 H11        -0.0320    5.3160   -0.8000 hc        1 MOL      0.100393
     28 H12        -0.8400    4.1730   -1.8880 hc        1 MOL      0.100393
     29 N3         -4.0040    3.7950   -1.6580 n         1 MOL     -0.258960
     30 C10        -4.9650    3.2360   -2.6930 c3        1 MOL      0.051216
     31 C11        -6.0970    2.3390   -2.3170 c         1 MOL      0.393417
     32 O6         -6.9090    2.0900   -3.1600 o         1 MOL     -0.493498
     33 C12        -4.1360    2.5790   -3.7710 c3        1 MOL     -0.281748
     34 C13        -3.0670    1.5770   -3.2170 c         1 MOL      0.713670
     35 O7         -2.0960    1.3200   -4.0210 o         1 MOL     -0.684212
     36 O8         -3.0640    1.2370   -2.0010 o         1 MOL     -0.684212
     37 H13        -3.8770    3.1620   -0.8840 hn        1 MOL      0.115917
     38 H14        -5.4560    4.0800   -3.1840 h1        1 MOL      0.089986
     39 H15        -3.5380    3.3910   -4.1840 hc        1 MOL      0.080017
     40 H16        -4.7910    2.1330   -4.5170 hc        1 MOL      0.080017
     41 N4         -6.1780    1.8880   -1.0410 n         1 MOL     -0.286842
     42 C14        -7.2990    1.0860   -0.5960 c3        1 MOL     -0.152085
     43 C15        -7.3940   -0.3240   -1.1880 c         1 MOL      0.385237
     44 O9         -8.4160   -0.8490   -1.4510 o         1 MOL     -0.558211
     45 H17        -5.4140    2.1210   -0.4250 hn        1 MOL      0.249657
     46 H18        -8.2110    1.6140   -0.8730 h1        1 MOL      0.107588
     47 H19        -7.2920    1.0670    0.4960 h1        1 MOL      0.107588
     48 N5         -6.2460   -0.9240   -1.5310 n         1 MOL     -0.087229
     49 C16        -6.2520   -2.2830   -2.1080 c3        1 MOL     -0.003421
     50 C17        -6.1670   -3.3890   -1.0200 c         1 MOL      0.458171
     51 O10        -6.1550   -4.5520   -1.3750 o         1 MOL     -0.561776
     52 C18        -5.1320   -2.4730   -3.1270 c3        1 MOL     -0.102234
     53 C19        -3.7300   -2.3660   -2.4790 c         1 MOL      0.715794
     54 N6         -2.7530   -2.4890   -3.3020 n         1 MOL     -0.741918
     55 O11        -3.5330   -1.9160   -1.3660 o         1 MOL     -0.727852
     56 H20        -5.3580   -0.4800   -1.3260 hn        1 MOL      0.161650
     57 H21        -7.1940   -2.4570   -2.6450 h1        1 MOL      0.102809
     58 H22        -5.2260   -1.7330   -3.9090 hc        1 MOL      0.028272
     59 H23        -5.2840   -3.4370   -3.6100 hc        1 MOL      0.028272
     60 H24        -2.8940   -2.4790   -4.3000 hn        1 MOL      0.363184
     61 H25        -1.8990   -2.0880   -2.9490 hn        1 MOL      0.363184
     62 N7         -6.0470   -3.0390    0.2360 n         1 MOL     -0.309227
     63 C20        -6.1320   -3.9530    1.3950 c3        1 MOL     -0.076232
     64 C21        -4.7070   -4.3590    1.8720 c         1 MOL      0.404554
     65 O12        -4.5210   -4.9430    2.9470 o         1 MOL     -0.551831
     66 H26        -5.8220   -2.0710    0.4440 hn        1 MOL      0.215186
     67 H27        -6.7300   -4.8180    1.1200 h1        1 MOL      0.100278
     68 H28        -6.7560   -3.5140    2.1650 h1        1 MOL      0.100278
     69 N8         -3.5770   -4.0440    1.1180 n         1 MOL     -0.190406
     70 C22        -2.2190   -4.5290    1.4290 c3        1 MOL     -0.005534
     71 C23        -1.2120   -3.3370    1.6270 c         1 MOL      0.403472
     72 O13        -1.4840   -2.2390    1.0470 o         1 MOL     -0.636539
     73 C24        -1.6100   -5.4090    0.2770 c3        1 MOL      0.427762
     74 C25        -2.3560   -6.7230    0.1800 c3        1 MOL     -0.576727
     75 O14        -1.8080   -4.7140   -0.9600 oh        1 MOL     -0.553777
     76 H29        -3.7850   -3.6870    0.2020 hn        1 MOL      0.247859
     77 H30        -2.2020   -5.1790    2.3000 h1        1 MOL      0.067864
     78 H31        -0.5360   -5.5260    0.4540 h1        1 MOL     -0.028005
     79 H32        -1.2230   -3.9540   -0.9100 ho        1 MOL      0.361242
     80 H33        -3.3100   -6.7040   -0.3660 hc        1 MOL      0.150083
     81 H34        -1.8460   -7.3560   -0.5410 hc        1 MOL      0.150083
     82 H35        -2.3110   -7.2280    1.1410 hc        1 MOL      0.150083
     83 N9         -0.0980   -3.4750    2.3920 n         1 MOL     -0.338484
     84 C26         1.1170   -2.6500    2.3390 c3        1 MOL     -0.001767
     85 C27         1.8070   -2.9680    1.0180 c         1 MOL      0.458985
     86 O15         2.1860   -4.0650    0.6840 o         1 MOL     -0.571826
     87 C28         1.8950   -2.8750    3.6710 c3        1 MOL      0.023728
     88 C29         1.1650   -2.1920    4.8830 c3        1 MOL     -0.040460
     89 C30         3.3790   -2.4460    3.5660 c3        1 MOL     -0.178791
     90 C31         1.4620   -2.8270    6.2360 c3        1 MOL      0.010912
     91 H36         0.0380   -4.3780    2.8270 hn        1 MOL      0.230371
     92 H37         0.9040   -1.5820    2.2790 h1        1 MOL      0.094148
     93 H38         1.8770   -3.9220    3.9630 hc        1 MOL      0.032820
     94 H39         0.0970   -2.2730    4.6850 hc        1 MOL      0.006087
     95 H40         1.3140   -1.1070    4.9750 hc        1 MOL      0.006087
     96 H41         3.8880   -3.1120    2.8630 hc        1 MOL      0.041048
     97 H42         3.4330   -1.3970    3.2960 hc        1 MOL      0.041048
     98 H43         3.9370   -2.4950    4.5030 hc        1 MOL      0.041048
     99 H44         2.5340   -3.0410    6.2900 hc        1 MOL     -0.004727
    100 H45         1.2380   -2.2510    7.1310 hc        1 MOL     -0.004727
    101 H46         1.0030   -3.8080    6.3620 hc        1 MOL     -0.004727
    102 N10         2.0110   -1.8750    0.2410 n         1 MOL     -0.036876
    103 C32         2.6260   -1.9470   -1.1000 c3        1 MOL     -0.004705
    104 C33         4.0540   -1.5290   -0.8610 c         1 MOL      0.399489
    105 O16         4.3210   -0.8920    0.1400 o         1 MOL     -0.392229
    106 C34         1.8740   -1.0760   -2.1360 c3        1 MOL     -0.073149
    107 C35         0.3700   -1.5880   -2.2730 c         1 MOL      0.518734
    108 O17         0.1120   -1.9880   -3.4390 o         1 MOL     -0.600009
    109 O18        -0.5120   -1.3380   -1.3980 o         1 MOL     -0.600009
    110 H47         1.4850   -1.0480    0.4690 hn        1 MOL      0.204084
    111 H48         2.5150   -2.9790   -1.4030 h1        1 MOL      0.049528
    112 H49         2.3510   -1.3580   -3.0830 hc        1 MOL      0.033173
    113 H50         2.0390   -0.0060   -1.9860 hc        1 MOL      0.033173
    114 N11         5.0410   -1.8100   -1.7020 n         1 MOL     -0.570283
    115 C36         6.4100   -1.2520   -1.5800 c3        1 MOL      0.272230
    116 C37         6.6120    0.2480   -1.1900 c         1 MOL      0.336142
    117 O19         7.4270    0.5760   -0.3190 o         1 MOL     -0.485879
    118 C38         7.2710   -1.6820   -2.8190 c3        1 MOL     -0.204272
    119 C39         8.7770   -1.6440   -2.5440 ca        1 MOL      0.123552
    120 C40         9.6640   -0.9290   -3.4070 ca        1 MOL     -0.180169
    121 C41         9.3260   -2.4190   -1.5120 ca        1 MOL     -0.180169
    122 C42        11.0720   -0.9070   -3.1200 ca        1 MOL     -0.102256
    123 C43        10.7110   -2.5280   -1.3260 ca        1 MOL     -0.102256
    124 C44        11.5920   -1.7290   -2.0660 ca        1 MOL     -0.118273
    125 H51         4.8220   -2.3200   -2.5370 hn        1 MOL      0.325637
    126 H52         6.9180   -1.6660   -0.7100 h1        1 MOL      0.060535
    127 H53         7.0630   -1.1040   -3.7140 hc        1 MOL      0.063352
    128 H54         7.0030   -2.7100   -3.0740 hc        1 MOL      0.063352
    129 H55         9.3340   -0.4100   -4.2890 ha        1 MOL      0.122352
    130 H56         8.6370   -3.0020   -0.9210 ha        1 MOL      0.122352
    131 H57        11.7450   -0.4810   -3.8470 ha        1 MOL      0.106319
    132 H58        11.0240   -3.2190   -0.5500 ha        1 MOL      0.106319
    133 H59        12.6490   -1.8690   -1.8870 ha        1 MOL      0.100413
    134 N12         5.8350    1.1990   -1.7690 n         1 MOL     -0.065109
    135 C45         5.9360    2.6640   -1.4410 c3        1 MOL     -0.019852
    136 C46         5.4960    2.9440   -0.0480 c         1 MOL      0.335121
    137 O20         5.9890    3.8800    0.5990 o         1 MOL     -0.557850
    138 C47         5.1520    3.4610   -2.4860 c3        1 MOL     -0.143079
    139 C48         4.2510    2.3920   -3.0600 c3        1 MOL     -0.065309
    140 C49         5.0470    1.0620   -2.9890 c3        1 MOL     -0.014240
    141 H60         7.0010    2.9060   -1.4640 h1        1 MOL      0.072756
    142 H61         4.6370    4.3820   -2.1900 hc        1 MOL      0.074052
    143 H62         5.7850    3.7040   -3.3360 hc        1 MOL      0.074052
    144 H63         3.4300    2.2850   -2.3480 hc        1 MOL      0.059759
    145 H64         3.9700    2.5910   -4.0880 hc        1 MOL      0.059759
    146 H65         4.3750    0.2040   -3.0790 h1        1 MOL      0.023800
    147 H66         5.7000    1.0160   -3.8610 h1        1 MOL      0.023800
    148 N13         4.5820    2.2370    0.4190 n         1 MOL     -0.008376
    149 C50         3.9550    2.3480    1.8290 c3        1 MOL     -0.127568
    150 C51         4.8650    1.6600    2.8660 c         1 MOL      0.461777
    151 O21         5.0960    2.2560    3.9130 o         1 MOL     -0.551100
    152 C52         2.4950    1.7210    1.7630 c3        1 MOL      0.006854
    153 C53         1.6070    2.2210    0.5470 c3        1 MOL     -0.098984
    154 C54         0.2720    1.5710    0.4700 c         1 MOL      0.602911
    155 O22        -0.5700    2.0840   -0.2490 o         1 MOL     -0.719292
    156 O23         0.0720    0.5490    1.1700 o         1 MOL     -0.719292
    157 H67         4.2780    1.5310   -0.2390 hn        1 MOL      0.132718
    158 H68         3.9990    3.4150    2.0380 h1        1 MOL      0.126034
    159 H69         2.0170    1.7960    2.7420 hc        1 MOL      0.005122
    160 H70         2.6570    0.6670    1.5070 hc        1 MOL      0.005122
    161 H71         2.1200    1.9400   -0.3770 hc        1 MOL      0.041889
    162 H72         1.6360    3.3110    0.5660 hc        1 MOL      0.041889
    163 N14         5.4750    0.4850    2.5840 n         1 MOL     -0.009790
    164 C55         6.5730   -0.1810    3.3200 c3        1 MOL     -0.362753
    165 H73         6.2330   -0.4410    4.3220 h1        1 MOL      0.122645
    166 H74         6.8690   -1.0860    2.7910 h1        1 MOL      0.122645
    167 H75         7.4250    0.4950    3.3910 h1        1 MOL      0.122645
    168 H76         5.2430    0.1370    1.6650 hn        1 MOL      0.056136
    169 Ca1        -2.2620   -0.0060    0.0700 Ca        1 MOL      1.677015
    170 O24        -1.8120    0.1790    2.9240 oh        1 MOL     -0.747405
    171 H77        -1.7570    0.3170    3.8750 ho        1 MOL      0.367996
    172 H78        -0.9060    0.0880    2.6480 ho        1 MOL      0.367996
    173 O25        -4.7450   -0.6800    1.0590 oh        1 MOL     -0.747405
    174 H79        -4.9640    0.1990    1.3530 ho        1 MOL      0.367996
    175 H80        -4.6900   -1.1950    1.8720 ho        1 MOL      0.367996
@<TRIPOS>BOND
     1    1    2 1   
     2    1    4 1   
     3    1    5 1   
     4    1    6 1   
     5    2    3 2   
     6    2    7 1   
     7    7    8 1   
     8    7   15 1   
     9    8    9 1   
    10    8   11 1   
    11    8   16 1   
    12    9   10 2   
    13    9   19 1   
    14   11   12 1   
    15   11   17 1   
    16   11   18 1   
    17   12   13 1   
    18   12   14 1   
    19   19   20 1   
    20   19   24 1   
    21   20   21 1   
    22   20   23 1   
    23   20   25 1   
    24   21   22 2   
    25   21   29 1   
    26   23   26 1   
    27   23   27 1   
    28   23   28 1   
    29   29   30 1   
    30   29   37 1   
    31   30   31 1   
    32   30   33 1   
    33   30   38 1   
    34   31   32 2   
    35   31   41 1   
    36   33   34 1   
    37   33   39 1   
    38   33   40 1   
    39   34   35 1   
    40   34   36 1   
    41   41   42 1   
    42   41   45 1   
    43   42   43 1   
    44   42   46 1   
    45   42   47 1   
    46   43   44 2   
    47   43   48 1   
    48   48   49 1   
    49   48   56 1   
    50   49   50 1   
    51   49   52 1   
    52   49   57 1   
    53   50   51 2   
    54   50   62 1   
    55   52   53 1   
    56   52   58 1   
    57   52   59 1   
    58   53   54 1   
    59   53   55 2   
    60   54   60 1   
    61   54   61 1   
    62   62   63 1   
    63   62   66 1   
    64   63   64 1   
    65   63   67 1   
    66   63   68 1   
    67   64   65 2   
    68   64   69 1   
    69   69   70 1   
    70   69   76 1   
    71   70   71 1   
    72   70   73 1   
    73   70   77 1   
    74   71   72 2   
    75   71   83 1   
    76   73   74 1   
    77   73   75 1   
    78   73   78 1   
    79   74   80 1   
    80   74   81 1   
    81   74   82 1   
    82   75   79 1   
    83   83   84 1   
    84   83   91 1   
    85   84   85 1   
    86   84   87 1   
    87   84   92 1   
    88   85   86 2   
    89   85  102 1   
    90   87   88 1   
    91   87   89 1   
    92   87   93 1   
    93   88   90 1   
    94   88   94 1   
    95   88   95 1   
    96   89   96 1   
    97   89   97 1   
    98   89   98 1   
    99   90   99 1   
   100   90  100 1   
   101   90  101 1   
   102  102  103 1   
   103  102  110 1   
   104  103  104 1   
   105  103  106 1   
   106  103  111 1   
   107  104  105 2   
   108  104  114 1   
   109  106  107 1   
   110  106  112 1   
   111  106  113 1   
   112  107  108 1   
   113  107  109 1   
   114  114  115 1   
   115  114  125 1   
   116  115  116 1   
   117  115  118 1   
   118  115  126 1   
   119  116  117 2   
   120  116  134 1   
   121  118  119 1   
   122  118  127 1   
   123  118  128 1   
   124  119  120 ar  
   125  119  121 ar  
   126  120  122 ar  
   127  120  129 1   
   128  121  123 ar  
   129  121  130 1   
   130  122  124 ar  
   131  122  131 1   
   132  123  124 ar  
   133  123  132 1   
   134  124  133 1   
   135  134  135 1   
   136  134  140 1   
   137  135  136 1   
   138  135  138 1   
   139  135  141 1   
   140  136  137 2   
   141  136  148 1   
   142  138  139 1   
   143  138  142 1   
   144  138  143 1   
   145  139  140 1   
   146  139  144 1   
   147  139  145 1   
   148  140  146 1   
   149  140  147 1   
   150  148  149 1   
   151  148  157 1   
   152  149  150 1   
   153  149  152 1   
   154  149  158 1   
   155  150  151 2   
   156  150  163 1   
   157  152  153 1   
   158  152  159 1   
   159  152  160 1   
   160  153  154 1   
   161  153  161 1   
   162  153  162 1   
   163  154  155 1   
   164  154  156 1   
   165  163  164 1   
   166  163  168 1   
   167  164  165 1   
   168  164  166 1   
   169  164  167 1   
   170  170  171 1   
   171  170  172 1   
   172  173  174 1   
   173  173  175 1   
@<TRIPOS>SUBSTRUCTURE
     1 MOL         1 TEMP              0 ****  ****    0 ROOT
