@<TRIPOS>MOLECULE
MOL
  183   181     1     0     0
SMALL
resp


@<TRIPOS>ATOM
      1 C1         -0.5960    1.4690    6.3560 c3        1 MOL     -0.293307
      2 C2         -0.8850    1.5050    4.8390 c         1 MOL      0.806117
      3 O1         -0.1290    2.0940    4.0600 o         1 MOL     -0.629593
      4 H1          0.0930    0.6530    6.5750 hc        1 MOL      0.061668
      5 H2         -0.1470    2.4140    6.6640 hc        1 MOL      0.061668
      6 H3         -1.5270    1.3140    6.9010 hc        1 MOL      0.061668
      7 N1         -2.0430    1.0020    4.4140 n         1 MOL     -0.750830
      8 C3         -2.6110    1.0790    3.0820 c3        1 MOL      0.524248
      9 C4         -3.0860    2.5710    2.8180 c         1 MOL      0.426688
     10 O2         -3.7970    3.1160    3.6860 o         1 MOL     -0.587892
     11 C5         -3.7820    0.0270    2.9600 c3        1 MOL     -0.383461
     12 C6         -4.4420    0.2270    1.5290 c         1 MOL      0.735639
     13 O3         -5.6620   -0.0220    1.4750 o         1 MOL     -0.681396
     14 O4         -3.8550    0.4900    0.5060 o         1 MOL     -0.681396
     15 H4         -2.5630    0.5340    5.1470 hn        1 MOL      0.310081
     16 H5         -1.8270    0.7430    2.4150 h1        1 MOL     -0.019810
     17 H6         -4.4410    0.2020    3.8150 hc        1 MOL      0.072193
     18 H7         -3.3270   -0.9650    2.9400 hc        1 MOL      0.072193
     19 N2         -2.6640    3.0780    1.7080 n         1 MOL     -0.222691
     20 C7         -2.8390    4.4990    1.2690 c3        1 MOL     -0.117060
     21 C8         -3.9540    4.6870    0.1510 c         1 MOL      0.524312
     22 O5         -4.6920    5.6090    0.0080 o         1 MOL     -0.553801
     23 C9         -1.4500    5.0740    0.7880 c3        1 MOL      0.302302
     24 C10        -0.3660    4.9990    1.9050 c3        1 MOL      0.060599
     25 C11        -1.6710    6.5050    0.2150 c3        1 MOL     -0.344203
     26 C12         0.9860    5.4750    1.3610 c3        1 MOL     -0.000829
     27 H8         -2.0640    2.4930    1.1330 hn        1 MOL      0.138269
     28 H9         -3.1840    5.1510    2.0760 h1        1 MOL      0.071642
     29 H10        -1.1950    4.4540   -0.0740 hc        1 MOL      0.021222
     30 H11        -0.2130    3.9640    2.2060 hc        1 MOL     -0.033815
     31 H12        -0.7230    5.6360    2.7120 hc        1 MOL     -0.033815
     32 H13        -0.7400    6.9440   -0.1450 hc        1 MOL      0.065622
     33 H14        -2.3040    6.4040   -0.6740 hc        1 MOL      0.065622
     34 H15        -2.0500    7.1590    1.0000 hc        1 MOL      0.065622
     35 H16         1.1800    5.0430    0.3840 hc        1 MOL     -0.014436
     36 H17         1.0430    6.5620    1.3740 hc        1 MOL     -0.014436
     37 H18         1.7860    5.1410    2.0250 hc        1 MOL     -0.014436
     38 N3         -4.2090    3.5520   -0.6420 n         1 MOL     -0.307625
     39 C13        -5.2240    3.5600   -1.7270 c3        1 MOL      0.040345
     40 C14        -6.6240    3.1460   -1.2210 c         1 MOL      0.504550
     41 O6         -7.5890    3.7390   -1.6760 o         1 MOL     -0.574587
     42 C15        -4.8440    2.6000   -2.8980 c3        1 MOL     -0.133554
     43 C16        -3.3670    2.3310   -3.2130 c         1 MOL      0.722648
     44 O7         -2.8710    2.7030   -4.2750 o         1 MOL     -0.686285
     45 O8         -2.6530    1.6690   -2.4240 o         1 MOL     -0.686285
     46 H19        -3.6440    2.7270   -0.4880 hn        1 MOL      0.161268
     47 H20        -5.2410    4.5520   -2.1650 h1        1 MOL      0.081296
     48 H21        -5.3730    2.8500   -3.8170 hc        1 MOL      0.005322
     49 H22        -5.2900    1.6410   -2.6080 hc        1 MOL      0.005322
     50 N4         -6.7790    2.1630   -0.2740 n         1 MOL     -0.248916
     51 C17        -8.0310    1.6070    0.1130 c3        1 MOL     -0.073064
     52 C18        -8.2800    0.2520   -0.5040 c         1 MOL      0.489481
     53 O9         -9.4210   -0.2130   -0.5370 o         1 MOL     -0.609008
     54 H23        -5.9930    1.6730    0.1320 hn        1 MOL      0.163090
     55 H24        -8.8480    2.3000   -0.0760 h1        1 MOL      0.077936
     56 H25        -8.0430    1.5660    1.2010 h1        1 MOL      0.077936
     57 N5         -7.2690   -0.3770   -1.0980 n         1 MOL     -0.242659
     58 C19        -7.3600   -1.6660   -1.7840 c3        1 MOL      0.024927
     59 C20        -7.2580   -2.8390   -0.8250 c         1 MOL      0.499562
     60 O10        -7.4300   -3.9500   -1.2660 o         1 MOL     -0.575423
     61 C21        -6.3020   -1.8490   -2.9210 c3        1 MOL     -0.252940
     62 C22        -4.8790   -1.6690   -2.3760 c         1 MOL      0.665772
     63 O11        -4.0040   -1.2250   -3.2040 o         1 MOL     -0.698231
     64 O12        -4.5140   -1.9040   -1.2020 o         1 MOL     -0.698231
     65 H26        -6.3250   -0.0500   -0.9580 hn        1 MOL      0.183845
     66 H27        -8.3480   -1.8190   -2.2360 h1        1 MOL      0.084562
     67 H28        -6.4860   -1.1320   -3.7300 hc        1 MOL      0.081067
     68 H29        -6.4240   -2.8600   -3.3020 hc        1 MOL      0.081067
     69 N6         -6.9010   -2.6230    0.4410 n         1 MOL     -0.310247
     70 C23        -6.6670   -3.7470    1.3970 c3        1 MOL     -0.018392
     71 C24        -5.3050   -4.4860    1.2800 c         1 MOL      0.441731
     72 O13        -5.1870   -5.5950    1.7960 o         1 MOL     -0.609515
     73 H30        -6.6560   -1.7220    0.8420 hn        1 MOL      0.240184
     74 H31        -7.5070   -4.4350    1.5160 h1        1 MOL      0.057912
     75 H32        -6.5800   -3.3450    2.4010 h1        1 MOL      0.057912
     76 N7         -4.2460   -3.9440    0.7710 n         1 MOL     -0.149830
     77 C25        -2.8920   -4.5110    0.9540 c3        1 MOL      0.175293
     78 C26        -1.9070   -3.3390    1.2100 c         1 MOL      0.393292
     79 O14        -2.1360   -2.1550    0.9270 o         1 MOL     -0.634343
     80 C27        -2.5000   -5.4550   -0.1550 c3        1 MOL     -0.078586
     81 C28        -2.9050   -5.1000   -1.6520 c3        1 MOL     -0.152576
     82 C29        -2.0530   -4.0140   -2.3360 c         1 MOL      0.568425
     83 N8         -1.9680   -4.1070   -3.5420 n         1 MOL     -0.685736
     84 O15        -1.5420   -3.0930   -1.7140 o         1 MOL     -0.516355
     85 H33        -4.3430   -3.1060    0.2070 hn        1 MOL      0.218318
     86 H34        -2.8700   -5.0740    1.8870 h1        1 MOL      0.026821
     87 H35        -2.9420   -6.3920    0.1700 hc        1 MOL      0.020188
     88 H36        -1.4240   -5.5750   -0.2010 hc        1 MOL      0.020188
     89 H37        -3.9720   -4.9230   -1.7230 hc        1 MOL      0.060876
     90 H38        -2.7480   -5.9990   -2.2500 hc        1 MOL      0.060876
     91 H39        -2.6890   -4.6470   -4.0030 hn        1 MOL      0.344461
     92 H40        -1.4060   -3.3910   -3.9950 hn        1 MOL      0.344461
     93 N9         -0.7050   -3.6970    1.6310 n         1 MOL     -0.347043
     94 C30         0.4900   -2.8690    1.7860 c3        1 MOL     -0.039939
     95 C31         1.5850   -3.3980    0.8430 c         1 MOL      0.456726
     96 O16         2.1380   -4.4420    1.0610 o         1 MOL     -0.556364
     97 C32         0.9160   -2.8080    3.2870 c3        1 MOL      0.074810
     98 C33         2.2290   -2.0080    3.5850 c3        1 MOL     -0.233271
     99 C34        -0.1720   -2.1440    4.1810 c3        1 MOL     -0.233271
    100 H41        -0.5660   -4.6970    1.7000 hn        1 MOL      0.250373
    101 H42         0.2450   -1.8380    1.5290 h1        1 MOL      0.255336
    102 H43         0.9660   -3.8140    3.7040 hc        1 MOL      0.014572
    103 H44         3.1350   -2.3500    3.0960 hc        1 MOL      0.056188
    104 H45         2.1150   -0.9520    3.3410 hc        1 MOL      0.056188
    105 H46         2.4130   -2.1270    4.6490 hc        1 MOL      0.056188
    106 H47        -0.1450   -1.0720    3.9890 hc        1 MOL      0.056188
    107 H48        -1.1480   -2.4850    3.8250 hc        1 MOL      0.056188
    108 H49        -0.1250   -2.3970    5.2320 hc        1 MOL      0.056188
    109 N10         1.9090   -2.6350   -0.1800 n         1 MOL     -0.228169
    110 C35         3.0800   -2.8180   -1.0100 c3        1 MOL      0.230221
    111 C36         4.3360   -2.2140   -0.3790 c         1 MOL      0.370901
    112 O17         4.3320   -1.3970    0.5530 o         1 MOL     -0.284362
    113 C37         2.7820   -2.4190   -2.4620 c3        1 MOL     -0.385899
    114 C38         3.1520   -0.9680   -2.6760 c         1 MOL      0.647332
    115 N11         2.3580    0.0240   -2.2440 n         1 MOL     -0.846397
    116 O18         4.2220   -0.6770   -3.2280 o         1 MOL     -0.589805
    117 H50         1.3920   -1.8230   -0.4850 hn        1 MOL      0.037662
    118 H51         3.2690   -3.8940   -0.9360 h1        1 MOL      0.023626
    119 H52         1.7160   -2.5610   -2.6390 hc        1 MOL      0.109535
    120 H53         3.4100   -3.0010   -3.1380 hc        1 MOL      0.109535
    121 H54         1.5040   -0.1700   -1.7390 hn        1 MOL      0.417399
    122 H55         2.4130    0.9080   -2.7230 hn        1 MOL      0.417399
    123 N12         5.4960   -2.5280   -1.0210 n         1 MOL     -0.622461
    124 C39         6.7100   -1.9670   -0.4730 c3        1 MOL      0.363480
    125 C40         6.7650   -0.4600   -0.2910 c         1 MOL      0.613514
    126 O19         7.2210   -0.0290    0.7720 o         1 MOL     -0.550785
    127 C41         7.9270   -2.5170   -1.3030 c3        1 MOL     -0.058899
    128 C42         9.3440   -2.1160   -0.9010 ca        1 MOL      0.003706
    129 C43         9.8150   -2.3830    0.3970 ca        1 MOL     -0.190826
    130 C44        10.1080   -1.2920   -1.7510 ca        1 MOL     -0.190826
    131 C45        11.0650   -1.8770    0.8100 ca        1 MOL     -0.228855
    132 C46        11.3730   -0.7600   -1.3160 ca        1 MOL     -0.228855
    133 C47        11.8600   -1.0900   -0.0560 ca        1 MOL      0.327698
    134 O20        13.1060   -0.5680    0.2880 oh        1 MOL     -0.515662
    135 H56         5.4920   -3.2490   -1.7320 hn        1 MOL      0.303630
    136 H57         6.7740   -2.4250    0.5230 h1        1 MOL     -0.013412
    137 H58         7.7910   -2.1560   -2.3210 hc        1 MOL      0.021570
    138 H59         7.9150   -3.6130   -1.3190 hc        1 MOL      0.021570
    139 H60         9.1990   -3.0060    1.0290 ha        1 MOL      0.139878
    140 H61         9.7110   -1.1710   -2.7510 ha        1 MOL      0.139878
    141 H62        11.3190   -2.0760    1.8410 ha        1 MOL      0.141358
    142 H63        11.9790   -0.1550   -1.9700 ha        1 MOL      0.141358
    143 H64        13.3040    0.0890   -0.3880 ho        1 MOL      0.354048
    144 N13         6.2620    0.3410   -1.2530 n         1 MOL     -0.640436
    145 C48         6.2570    1.7950   -1.1820 c3        1 MOL      0.317923
    146 C49         5.3440    2.3210   -0.0240 c         1 MOL      0.057375
    147 O21         5.7320    3.2500    0.6720 o         1 MOL     -0.515045
    148 C50         5.5810    2.2990   -2.4540 c3        1 MOL     -0.123697
    149 C51         5.6320    3.8100   -2.6800 c3        1 MOL     -0.373669
    150 C52         4.7110    4.1510   -3.9120 c         1 MOL      0.764976
    151 O22         3.5360    4.4760   -3.7160 o         1 MOL     -0.734925
    152 O23         5.1850    4.4020   -5.0550 o         1 MOL     -0.734925
    153 H65         5.7280   -0.1300   -1.9780 hn        1 MOL      0.303622
    154 H66         7.2610    2.2400   -1.1180 h1        1 MOL      0.058011
    155 H67         4.5410    1.9840   -2.3990 hc        1 MOL      0.031856
    156 H68         6.0890    1.7980   -3.2830 hc        1 MOL      0.031856
    157 H69         6.6810    4.0540   -2.8360 hc        1 MOL      0.089238
    158 H70         5.2570    4.3590   -1.8130 hc        1 MOL      0.089238
    159 N14         4.3560    1.6350    0.5110 n         1 MOL      0.089115
    160 C53         3.5630    1.8890    1.7000 c3        1 MOL     -0.165916
    161 C54         4.2690    1.4750    2.9720 c         1 MOL      0.511856
    162 O24         4.0590    2.0610    4.0050 o         1 MOL     -0.572874
    163 C55         2.2610    1.2460    1.4520 c3        1 MOL      0.205556
    164 C56         1.4960    1.8590    0.2770 c3        1 MOL     -0.104495
    165 C57         0.2140    1.1230   -0.1010 c         1 MOL      0.585602
    166 O25        -0.8750    1.6730    0.0030 o         1 MOL     -0.669623
    167 O26         0.2370   -0.0270   -0.5780 o         1 MOL     -0.669623
    168 H71         4.0550    0.8280   -0.0150 hn        1 MOL      0.310252
    169 H72         3.4850    2.9800    1.7700 h1        1 MOL      0.118801
    170 H73         1.7130    1.1810    2.3880 hc        1 MOL     -0.031791
    171 H74         2.3090    0.1780    1.2050 hc        1 MOL     -0.031791
    172 H75         2.1470    2.0210   -0.5930 hc        1 MOL      0.047013
    173 H76         1.2190    2.8770    0.5510 hc        1 MOL      0.047013
    174 N15         5.0490    0.3930    2.9040 n         1 MOL     -0.016570
    175 C58         5.8900   -0.1650    3.9650 c3        1 MOL     -0.259260
    176 H77         5.2690   -0.4140    4.8260 h1        1 MOL      0.086227
    177 H78         6.3840   -1.0670    3.6020 h1        1 MOL      0.086227
    178 H79         6.6410    0.5690    4.2580 h1        1 MOL      0.086227
    179 H80         4.9360   -0.1160    2.0420 hn        1 MOL     -0.042620
    180 Ca1        -2.2920   -0.5590   -1.2580 Ca        1 MOL      1.719803
    181 O27        -0.9970   -0.6360   -3.5810 oh        1 MOL     -0.892082
    182 H81        -0.3100   -1.2650   -3.7970 ho        1 MOL      0.426851
    183 H82        -1.0420   -0.0540   -4.3460 ho        1 MOL      0.426851
@<TRIPOS>BOND
     1    1    2 1   
     2    1    4 1   
     3    1    5 1   
     4    1    6 1   
     5    2    3 2   
     6    2    7 1   
     7    7    8 1   
     8    7   15 1   
     9    8    9 1   
    10    8   11 1   
    11    8   16 1   
    12    9   10 2   
    13    9   19 1   
    14   11   12 1   
    15   11   17 1   
    16   11   18 1   
    17   12   13 1   
    18   12   14 1   
    19   19   20 1   
    20   19   27 1   
    21   20   21 1   
    22   20   23 1   
    23   20   28 1   
    24   21   22 2   
    25   21   38 1   
    26   23   24 1   
    27   23   25 1   
    28   23   29 1   
    29   24   26 1   
    30   24   30 1   
    31   24   31 1   
    32   25   32 1   
    33   25   33 1   
    34   25   34 1   
    35   26   35 1   
    36   26   36 1   
    37   26   37 1   
    38   38   39 1   
    39   38   46 1   
    40   39   40 1   
    41   39   42 1   
    42   39   47 1   
    43   40   41 2   
    44   40   50 1   
    45   42   43 1   
    46   42   48 1   
    47   42   49 1   
    48   43   44 1   
    49   43   45 1   
    50   50   51 1   
    51   50   54 1   
    52   51   52 1   
    53   51   55 1   
    54   51   56 1   
    55   52   53 2   
    56   52   57 1   
    57   57   58 1   
    58   57   65 1   
    59   58   59 1   
    60   58   61 1   
    61   58   66 1   
    62   59   60 2   
    63   59   69 1   
    64   61   62 1   
    65   61   67 1   
    66   61   68 1   
    67   62   63 1   
    68   62   64 1   
    69   69   70 1   
    70   69   73 1   
    71   70   71 1   
    72   70   74 1   
    73   70   75 1   
    74   71   72 2   
    75   71   76 1   
    76   76   77 1   
    77   76   85 1   
    78   77   78 1   
    79   77   80 1   
    80   77   86 1   
    81   78   79 2   
    82   78   93 1   
    83   80   81 1   
    84   80   87 1   
    85   80   88 1   
    86   81   82 1   
    87   81   89 1   
    88   81   90 1   
    89   82   83 1   
    90   82   84 2   
    91   83   91 1   
    92   83   92 1   
    93   93   94 1   
    94   93  100 1   
    95   94   95 1   
    96   94   97 1   
    97   94  101 1   
    98   95   96 2   
    99   95  109 1   
   100   97   98 1   
   101   97   99 1   
   102   97  102 1   
   103   98  103 1   
   104   98  104 1   
   105   98  105 1   
   106   99  106 1   
   107   99  107 1   
   108   99  108 1   
   109  109  110 1   
   110  109  117 1   
   111  110  111 1   
   112  110  113 1   
   113  110  118 1   
   114  111  112 2   
   115  111  123 1   
   116  113  114 1   
   117  113  119 1   
   118  113  120 1   
   119  114  115 1   
   120  114  116 2   
   121  115  121 1   
   122  115  122 1   
   123  123  124 1   
   124  123  135 1   
   125  124  125 1   
   126  124  127 1   
   127  124  136 1   
   128  125  126 2   
   129  125  144 1   
   130  127  128 1   
   131  127  137 1   
   132  127  138 1   
   133  128  129 ar  
   134  128  130 ar  
   135  129  131 ar  
   136  129  139 1   
   137  130  132 ar  
   138  130  140 1   
   139  131  133 ar  
   140  131  141 1   
   141  132  133 ar  
   142  132  142 1   
   143  133  134 1   
   144  134  143 1   
   145  144  145 1   
   146  144  153 1   
   147  145  146 1   
   148  145  148 1   
   149  145  154 1   
   150  146  147 2   
   151  146  159 1   
   152  148  149 1   
   153  148  155 1   
   154  148  156 1   
   155  149  150 1   
   156  149  157 1   
   157  149  158 1   
   158  150  151 1   
   159  150  152 1   
   160  159  160 1   
   161  159  168 1   
   162  160  161 1   
   163  160  163 1   
   164  160  169 1   
   165  161  162 2   
   166  161  174 1   
   167  163  164 1   
   168  163  170 1   
   169  163  171 1   
   170  164  165 1   
   171  164  172 1   
   172  164  173 1   
   173  165  166 1   
   174  165  167 1   
   175  174  175 1   
   176  174  179 1   
   177  175  176 1   
   178  175  177 1   
   179  175  178 1   
   180  181  182 1   
   181  181  183 1   
@<TRIPOS>SUBSTRUCTURE
     1 MOL         1 TEMP              0 ****  ****    0 ROOT
