@<TRIPOS>MOLECULE
MOL
  189   185     1     0     0
SMALL
resp


@<TRIPOS>ATOM
      1 C1         -0.0210    3.6560   -4.4530 c3        1 MOL     -0.477906
      2 C2          0.5400    2.9860   -3.1510 c         1 MOL      0.626713
      3 O1         -0.0900    3.0600   -2.1230 o         1 MOL     -0.492695
      4 H1         -0.8590    4.3020   -4.1950 hc        1 MOL      0.118176
      5 H2          0.7630    4.2500   -4.9230 hc        1 MOL      0.118176
      6 H3         -0.3560    2.8830   -5.1440 hc        1 MOL      0.118176
      7 N1          1.7600    2.4440   -3.1520 n         1 MOL     -0.510394
      8 C3          2.4840    1.7070   -2.0770 c3        1 MOL      0.058305
      9 C4          3.1960    2.7310   -1.2370 c         1 MOL      0.364216
     10 O2          4.3850    2.9120   -1.3820 o         1 MOL     -0.460013
     11 C5          3.3860    0.6330   -2.8080 c3        1 MOL      0.038324
     12 C6          4.2430   -0.1100   -1.7150 c         1 MOL      0.435222
     13 O3          3.8170   -0.1350   -0.5360 o         1 MOL     -0.578341
     14 O4          5.2420   -0.7710   -2.1550 o         1 MOL     -0.578341
     15 H4          2.2600    2.4230   -4.0230 hn        1 MOL      0.300977
     16 H5          1.8220    1.0850   -1.4730 h1        1 MOL      0.098710
     17 H6          3.9610    0.9920   -3.6570 hc        1 MOL     -0.001412
     18 H7          2.6100    0.0050   -3.2410 hc        1 MOL     -0.001412
     19 N2          2.5140    3.5610   -0.4360 n         1 MOL     -0.223037
     20 C7          2.9880    4.8600    0.0550 c3        1 MOL     -0.131579
     21 C8          3.9250    4.8730    1.2750 c         1 MOL      0.572511
     22 O5          4.6020    5.8220    1.5350 o         1 MOL     -0.589042
     23 C9          1.7650    5.7450    0.2830 c3        1 MOL     -0.149792
     24 C10         1.1760    6.4040   -0.9670 c3        1 MOL      0.293648
     25 C11         0.2300    7.5300   -0.4040 c3        1 MOL     -0.249651
     26 C12        -0.2960    8.3330   -1.6030 c3        1 MOL     -0.007004
     27 N3         -0.9820    7.5780   -2.6610 n4        1 MOL     -0.290726
     28 H8          1.5700    3.2350   -0.2790 hn        1 MOL      0.252089
     29 H9          3.6860    5.2010   -0.7130 h1        1 MOL      0.111722
     30 H10         2.0480    6.5260    0.9790 hc        1 MOL      0.058551
     31 H11         1.0530    5.2430    0.9270 hc        1 MOL      0.058551
     32 H12         0.5880    5.6580   -1.4980 hc        1 MOL     -0.059208
     33 H13         1.9490    6.7970   -1.6270 hc        1 MOL     -0.059208
     34 H14         0.7290    8.3260    0.1520 hc        1 MOL      0.109421
     35 H15        -0.6260    7.0490    0.0760 hc        1 MOL      0.109421
     36 H16         0.5450    8.9450   -1.9180 hx        1 MOL      0.088501
     37 H17        -0.9500    9.1380   -1.2340 hx        1 MOL      0.088501
     38 H18        -1.6990    8.1650   -3.0610 hn        1 MOL      0.313982
     39 H19        -0.2740    7.3670   -3.3450 hn        1 MOL      0.313982
     40 H20        -1.2640    6.6400   -2.3950 hn        1 MOL      0.313982
     41 N4          3.9370    3.7840    1.9820 n         1 MOL     -0.305318
     42 C13         4.8820    3.3750    3.0450 c3        1 MOL      0.054542
     43 C14         5.9530    2.4710    2.4410 c         1 MOL      0.374343
     44 O6          6.9220    2.2440    3.1180 o         1 MOL     -0.532190
     45 C15         4.0220    2.5940    4.1100 c3        1 MOL     -0.255197
     46 C16         3.2250    1.3270    3.6790 c         1 MOL      0.765298
     47 O7          3.2670    0.8860    2.5310 o         1 MOL     -0.704753
     48 O8          2.5690    0.7220    4.5420 o         1 MOL     -0.704753
     49 H21         3.2420    3.1130    1.6860 hn        1 MOL      0.195425
     50 H22         5.3460    4.2180    3.5560 h1        1 MOL      0.099872
     51 H23         3.1780    3.1310    4.5400 hc        1 MOL      0.060746
     52 H24         4.7170    2.4250    4.9340 hc        1 MOL      0.060746
     53 N5          5.8210    1.9350    1.2420 n         1 MOL      0.039597
     54 C17         6.8970    1.2220    0.5030 c3        1 MOL     -0.040486
     55 C18         7.2540   -0.1180    1.1540 c         1 MOL      0.429713
     56 O9          8.4470   -0.3780    1.2650 o         1 MOL     -0.548372
     57 H25         5.0910    2.3120    0.6600 hn        1 MOL     -0.002889
     58 H26         7.7310    1.9170    0.4810 h1        1 MOL      0.063545
     59 H27         6.6140    1.1440   -0.5460 h1        1 MOL      0.063545
     60 N6          6.2710   -0.8730    1.6460 n         1 MOL     -0.172960
     61 C19         6.4520   -2.2330    2.0510 c3        1 MOL     -0.024999
     62 C20         6.5240   -3.2700    0.8810 c         1 MOL      0.369018
     63 O10         6.8570   -4.4380    1.1130 o         1 MOL     -0.556034
     64 C21         5.3540   -2.6540    2.9640 c3        1 MOL     -0.199736
     65 C22         3.9230   -2.7650    2.4220 c         1 MOL      0.710526
     66 O11         3.6340   -2.6910    1.2250 o         1 MOL     -0.673444
     67 O12         2.9920   -2.7680    3.2310 o         1 MOL     -0.673444
     68 H28         5.3560   -0.4700    1.5580 hn        1 MOL      0.121795
     69 H29         7.3370   -2.3110    2.6830 h1        1 MOL      0.112480
     70 H30         5.3630   -1.9360    3.7840 hc        1 MOL      0.073798
     71 H31         5.5690   -3.5890    3.4870 hc        1 MOL      0.073798
     72 N7          6.2440   -2.8720   -0.3510 n         1 MOL     -0.088825
     73 C23         6.3020   -3.7610   -1.5430 c3        1 MOL     -0.210617
     74 C24         4.9550   -4.2300   -2.1000 c         1 MOL      0.546584
     75 O13         4.9440   -4.8510   -3.1340 o         1 MOL     -0.578993
     76 H32         5.9640   -1.9250   -0.5350 hn        1 MOL      0.147322
     77 H33         6.8980   -4.6480   -1.3020 h1        1 MOL      0.117153
     78 H34         6.8790   -3.2610   -2.3140 h1        1 MOL      0.117153
     79 N8          3.8260   -3.9320   -1.5000 n         1 MOL     -0.119268
     80 C25         2.4620   -4.3130   -1.9000 c3        1 MOL     -0.178403
     81 C26         1.4800   -3.1850   -1.8260 c         1 MOL      0.658728
     82 O14         1.6590   -2.2280   -1.0800 o         1 MOL     -0.544006
     83 C27         1.9070   -5.5220   -1.0880 c3        1 MOL      0.536191
     84 C28         2.8690   -6.7230   -1.3780 c3        1 MOL     -0.396472
     85 O15         1.9350   -5.2300    0.2690 oh        1 MOL     -0.672048
     86 H35         3.8450   -3.4700   -0.6090 hn        1 MOL      0.097579
     87 H36         2.4380   -4.6230   -2.9390 h1        1 MOL      0.064784
     88 H37         0.9720   -5.8140   -1.5670 h1        1 MOL     -0.002998
     89 H38         2.7770   -4.8520    0.5400 ho        1 MOL      0.417781
     90 H39         3.4240   -6.6050   -2.3140 hc        1 MOL      0.089705
     91 H40         3.6330   -6.8800   -0.6140 hc        1 MOL      0.089705
     92 H41         2.1840   -7.5710   -1.3030 hc        1 MOL      0.089705
     93 N9          0.3380   -3.2160   -2.5270 n         1 MOL     -0.632269
     94 C29        -0.7660   -2.2920   -2.5120 c3        1 MOL     -0.034533
     95 C30        -1.9470   -3.0420   -1.8560 c         1 MOL      0.469377
     96 O16        -2.4320   -4.1350   -2.2030 o         1 MOL     -0.549983
     97 C31        -1.1240   -1.7740   -3.9310 c3        1 MOL      0.374636
     98 C32         0.0800   -1.1800   -4.6380 c3        1 MOL     -0.013120
     99 C33        -2.4380   -0.8390   -4.0070 c3        1 MOL     -0.510765
    100 C34        -0.0570   -1.0010   -6.1320 c3        1 MOL     -0.028258
    101 H42         0.2350   -3.9010   -3.2690 hn        1 MOL      0.304640
    102 H43        -0.5680   -1.4340   -1.8700 h1        1 MOL      0.152478
    103 H44        -1.3620   -2.6870   -4.4750 hc        1 MOL     -0.050553
    104 H45         0.9840   -1.7780   -4.4850 hc        1 MOL      0.011967
    105 H46         0.1970   -0.1840   -4.2300 hc        1 MOL      0.011967
    106 H47        -2.4630   -0.2430   -4.9210 hc        1 MOL      0.097072
    107 H48        -3.3600   -1.3310   -3.6950 hc        1 MOL      0.097072
    108 H49        -2.3820   -0.1130   -3.1970 hc        1 MOL      0.097072
    109 H50        -0.2060   -1.9990   -6.5560 hc        1 MOL      0.002704
    110 H51        -0.8930   -0.3960   -6.4830 hc        1 MOL      0.002704
    111 H52         0.8330   -0.5960   -6.6130 hc        1 MOL      0.002704
    112 N10        -2.5430   -2.3740   -0.8400 n         1 MOL     -0.164063
    113 C35        -3.8270   -2.7950   -0.1820 c3        1 MOL     -0.028630
    114 C36        -5.0510   -2.2310   -0.8860 c         1 MOL      0.406323
    115 O17        -4.9070   -1.3810   -1.7600 o         1 MOL     -0.348664
    116 C37        -3.7950   -2.2300    1.2660 c3        1 MOL     -0.046171
    117 C38        -2.6290   -2.6880    2.1470 c3        1 MOL     -0.263521
    118 O18        -3.8040   -0.7990    1.2760 oh        1 MOL     -0.261484
    119 H53        -2.1300   -1.5730   -0.3780 hn        1 MOL      0.234155
    120 H54        -3.9230   -3.8740   -0.2520 h1        1 MOL      0.095167
    121 H55        -4.7360   -2.5030    1.7350 h1        1 MOL      0.055910
    122 H56        -3.0120   -0.5420    1.7530 ho        1 MOL      0.350801
    123 H57        -2.9240   -2.4510    3.1680 hc        1 MOL      0.085322
    124 H58        -2.3760   -3.7400    2.0100 hc        1 MOL      0.085322
    125 H59        -1.7850   -2.0830    1.8240 hc        1 MOL      0.085322
    126 N11        -6.2750   -2.6710   -0.4790 n         1 MOL     -0.341570
    127 C39        -7.4940   -1.9140   -0.7920 c3        1 MOL     -0.160604
    128 C40        -7.5310   -0.4520   -0.2560 c         1 MOL      0.347010
    129 O19        -8.2260    0.3800   -0.9140 o         1 MOL     -0.460607
    130 C41        -8.8620   -2.5730   -0.3850 c3        1 MOL      0.577415
    131 C42        -9.1610   -3.8890   -1.0530 c3        1 MOL     -0.488467
    132 O20        -9.0050   -2.7130    1.0270 oh        1 MOL     -0.699345
    133 H60        -6.3130   -3.5400    0.0260 hn        1 MOL      0.279117
    134 H61        -7.5940   -1.7930   -1.8740 h1        1 MOL      0.101733
    135 H62        -9.6270   -1.8660   -0.7010 h1        1 MOL     -0.023551
    136 H63        -9.9500   -2.7460    1.2010 ho        1 MOL      0.402118
    137 H64        -9.1050   -3.7590   -2.1320 hc        1 MOL      0.124480
    138 H65        -8.5280   -4.6830   -0.6590 hc        1 MOL      0.124480
    139 H66       -10.2230   -3.9940   -0.8370 hc        1 MOL      0.124480
    140 N12        -6.9480   -0.1720    0.9170 n         1 MOL     -0.295148
    141 C43        -6.8520    1.1700    1.5570 c3        1 MOL     -0.008683
    142 C44        -6.0750    2.0610    0.6950 c         1 MOL      0.309669
    143 O21        -6.5550    3.1510    0.4110 o         1 MOL     -0.483088
    144 C45        -6.2810    1.1010    3.0400 c3        1 MOL      0.109755
    145 C46        -7.1250    0.2000    3.9750 c3        1 MOL     -0.132729
    146 C47        -6.7300    0.3050    5.4720 c3        1 MOL      0.013666
    147 C48        -7.4640   -0.8110    6.2240 c3        1 MOL     -0.000117
    148 N13        -6.9950   -0.8300    7.6530 n4        1 MOL     -0.292055
    149 H67        -6.6540   -0.9460    1.5000 hn        1 MOL      0.269064
    150 H68        -7.8050    1.7000    1.6370 h1        1 MOL      0.110968
    151 H69        -6.3530    2.1290    3.3930 hc        1 MOL     -0.017816
    152 H70        -5.2480    0.7620    3.0650 hc        1 MOL     -0.017816
    153 H71        -7.0230   -0.8270    3.6230 hc        1 MOL      0.042813
    154 H72        -8.1750    0.4740    3.8840 hc        1 MOL      0.042813
    155 H73        -6.9150    1.3060    5.8880 hc        1 MOL      0.040031
    156 H74        -5.6530    0.2280    5.6630 hc        1 MOL      0.040031
    157 H75        -7.1120   -1.7510    5.7850 hx        1 MOL      0.096103
    158 H76        -8.5500   -0.7880    6.1750 hx        1 MOL      0.096103
    159 H77        -7.6860   -1.3360    8.1840 hn        1 MOL      0.289634
    160 H78        -6.0880   -1.2590    7.6890 hn        1 MOL      0.289634
    161 H79        -6.7380    0.0470    8.0680 hn        1 MOL      0.289634
    162 N14        -4.9210    1.5960    0.0950 n         1 MOL      0.172569
    163 C49        -3.9940    2.3830   -0.6550 c3        1 MOL     -0.224749
    164 C50        -4.4840    2.6830   -2.0400 c         1 MOL      0.446752
    165 O22        -4.3320    3.7990   -2.5140 o         1 MOL     -0.559720
    166 C51        -2.6720    1.5930   -0.7140 c3        1 MOL      0.090936
    167 C52        -1.6630    1.9770    0.4510 c3        1 MOL     -0.194886
    168 C53        -0.4800    0.9830    0.4100 c         1 MOL      0.768481
    169 O23         0.7000    1.3970    0.5710 o         1 MOL     -0.830702
    170 O24        -0.5980   -0.2210    0.0950 o         1 MOL     -0.830702
    171 H80        -4.6720    0.6380    0.2870 hn        1 MOL     -0.210598
    172 H81        -3.8790    3.3230   -0.1270 h1        1 MOL      0.104069
    173 H82        -2.1360    1.8040   -1.6400 hc        1 MOL      0.015935
    174 H83        -2.9850    0.5600   -0.6380 hc        1 MOL      0.015935
    175 H84        -2.1660    1.9500    1.4190 hc        1 MOL      0.037946
    176 H85        -1.3110    3.0090    0.3970 hc        1 MOL      0.037946
    177 N15        -5.1810    1.7930   -2.7880 n         1 MOL     -0.081764
    178 C54        -6.0050    2.1950   -3.8660 c3        1 MOL     -0.221939
    179 H86        -6.2820    3.2410   -3.7410 h1        1 MOL      0.084747
    180 H87        -5.4620    2.0720   -4.8040 h1        1 MOL      0.084747
    181 H88        -6.9050    1.5810   -3.8850 h1        1 MOL      0.084747
    182 H89        -5.3250    0.8430   -2.4670 hn        1 MOL      0.194787
    183 Ca1         1.9470   -0.8040    0.9690 Ca        1 MOL      1.746887
    184 O25         0.6080   -3.1620    1.5100 oh        1 MOL     -0.780191
    185 H90         0.7230   -3.4140    2.4290 ho        1 MOL      0.370511
    186 H91         0.9930   -3.8840    1.0140 ho        1 MOL      0.370511
    187 O26         0.4720   -0.5880    3.1950 oh        1 MOL     -0.780191
    188 H92         1.1060   -0.3280    3.8570 ho        1 MOL      0.370511
    189 H93        -0.3370   -0.1320    3.4560 ho        1 MOL      0.370511
@<TRIPOS>BOND
     1    1    2 1   
     2    1    4 1   
     3    1    5 1   
     4    1    6 1   
     5    2    3 2   
     6    2    7 1   
     7    7    8 1   
     8    7   15 1   
     9    8    9 1   
    10    8   11 1   
    11    8   16 1   
    12    9   10 2   
    13    9   19 1   
    14   11   12 1   
    15   11   17 1   
    16   11   18 1   
    17   12   13 1   
    18   12   14 1   
    19   19   20 1   
    20   19   28 1   
    21   20   21 1   
    22   20   23 1   
    23   20   29 1   
    24   21   22 2   
    25   21   41 1   
    26   23   24 1   
    27   23   30 1   
    28   23   31 1   
    29   24   25 1   
    30   24   32 1   
    31   24   33 1   
    32   25   26 1   
    33   25   34 1   
    34   25   35 1   
    35   26   27 1   
    36   26   36 1   
    37   26   37 1   
    38   27   38 1   
    39   27   39 1   
    40   27   40 1   
    41   41   42 1   
    42   41   49 1   
    43   42   43 1   
    44   42   45 1   
    45   42   50 1   
    46   43   44 2   
    47   43   53 1   
    48   45   46 1   
    49   45   51 1   
    50   45   52 1   
    51   46   47 1   
    52   46   48 1   
    53   53   54 1   
    54   53   57 1   
    55   54   55 1   
    56   54   58 1   
    57   54   59 1   
    58   55   56 2   
    59   55   60 1   
    60   60   61 1   
    61   60   68 1   
    62   61   62 1   
    63   61   64 1   
    64   61   69 1   
    65   62   63 2   
    66   62   72 1   
    67   64   65 1   
    68   64   70 1   
    69   64   71 1   
    70   65   66 1   
    71   65   67 1   
    72   72   73 1   
    73   72   76 1   
    74   73   74 1   
    75   73   77 1   
    76   73   78 1   
    77   74   75 2   
    78   74   79 1   
    79   79   80 1   
    80   79   86 1   
    81   80   81 1   
    82   80   83 1   
    83   80   87 1   
    84   81   82 2   
    85   81   93 1   
    86   83   84 1   
    87   83   85 1   
    88   83   88 1   
    89   84   90 1   
    90   84   91 1   
    91   84   92 1   
    92   85   89 1   
    93   93   94 1   
    94   93  101 1   
    95   94   95 1   
    96   94   97 1   
    97   94  102 1   
    98   95   96 2   
    99   95  112 1   
   100   97   98 1   
   101   97   99 1   
   102   97  103 1   
   103   98  100 1   
   104   98  104 1   
   105   98  105 1   
   106   99  106 1   
   107   99  107 1   
   108   99  108 1   
   109  100  109 1   
   110  100  110 1   
   111  100  111 1   
   112  112  113 1   
   113  112  119 1   
   114  113  114 1   
   115  113  116 1   
   116  113  120 1   
   117  114  115 2   
   118  114  126 1   
   119  116  117 1   
   120  116  118 1   
   121  116  121 1   
   122  117  123 1   
   123  117  124 1   
   124  117  125 1   
   125  118  122 1   
   126  126  127 1   
   127  126  133 1   
   128  127  128 1   
   129  127  130 1   
   130  127  134 1   
   131  128  129 2   
   132  128  140 1   
   133  130  131 1   
   134  130  132 1   
   135  130  135 1   
   136  131  137 1   
   137  131  138 1   
   138  131  139 1   
   139  132  136 1   
   140  140  141 1   
   141  140  149 1   
   142  141  142 1   
   143  141  144 1   
   144  141  150 1   
   145  142  143 2   
   146  142  162 1   
   147  144  145 1   
   148  144  151 1   
   149  144  152 1   
   150  145  146 1   
   151  145  153 1   
   152  145  154 1   
   153  146  147 1   
   154  146  155 1   
   155  146  156 1   
   156  147  148 1   
   157  147  157 1   
   158  147  158 1   
   159  148  159 1   
   160  148  160 1   
   161  148  161 1   
   162  162  163 1   
   163  162  171 1   
   164  163  164 1   
   165  163  166 1   
   166  163  172 1   
   167  164  165 2   
   168  164  177 1   
   169  166  167 1   
   170  166  173 1   
   171  166  174 1   
   172  167  168 1   
   173  167  175 1   
   174  167  176 1   
   175  168  169 1   
   176  168  170 1   
   177  177  178 1   
   178  177  182 1   
   179  178  179 1   
   180  178  180 1   
   181  178  181 1   
   182  184  185 1   
   183  184  186 1   
   184  187  188 1   
   185  187  189 1   
@<TRIPOS>SUBSTRUCTURE
     1 MOL         1 TEMP              0 ****  ****    0 ROOT
