@<TRIPOS>MOLECULE
MOL
  183   181     1     0     0
SMALL
resp


@<TRIPOS>ATOM
      1 C1         -0.9980    1.5480    6.4350 c3        1 MOL     -0.269583
      2 C2         -1.2530    1.4310    4.9160 c         1 MOL      0.788657
      3 O1         -0.3610    1.7710    4.1120 o         1 MOL     -0.619802
      4 H1         -1.7210    0.9340    6.9730 hc        1 MOL      0.061632
      5 H2          0.0110    1.2030    6.6630 hc        1 MOL      0.061632
      6 H3         -1.1060    2.5880    6.7430 hc        1 MOL      0.061632
      7 N1         -2.3950    1.0200    4.4180 n         1 MOL     -0.714872
      8 C3         -2.8130    1.1270    3.0520 c3        1 MOL      0.341607
      9 C4         -3.3340    2.5630    2.7690 c         1 MOL      0.448989
     10 O2         -4.1810    3.0640    3.4990 o         1 MOL     -0.590301
     11 C5         -3.8240   -0.0100    2.8220 c3        1 MOL     -0.531687
     12 C6         -4.4380   -0.0570    1.4130 c         1 MOL      1.041456
     13 O3         -5.5580   -0.5580    1.2980 o         1 MOL     -0.755218
     14 O4         -3.9450    0.4640    0.4180 o         1 MOL     -0.755218
     15 H4         -3.2040    0.8760    5.0070 hn        1 MOL      0.333882
     16 H5         -1.9970    1.0070    2.3380 h1        1 MOL      0.063964
     17 H6         -4.6960    0.1630    3.4670 hc        1 MOL      0.105275
     18 H7         -3.2260   -0.8870    3.0480 hc        1 MOL      0.105275
     19 N2         -2.8690    3.1720    1.6700 n         1 MOL     -0.182793
     20 C7         -3.2180    4.5640    1.1940 c3        1 MOL     -0.050248
     21 C8         -4.3000    4.5180    0.0820 c         1 MOL      0.352940
     22 O5         -4.8080    5.5650   -0.3840 o         1 MOL     -0.548435
     23 C9         -1.9130    5.2630    0.6810 c3        1 MOL      0.359329
     24 C10        -0.8460    5.2930    1.7890 c3        1 MOL     -0.126267
     25 C11        -2.1350    6.6800    0.1060 c3        1 MOL     -0.253380
     26 C12        -1.0920    6.0660    3.0730 c3        1 MOL     -0.268196
     27 H8         -2.1970    2.6030    1.1770 hn        1 MOL      0.152277
     28 H9         -3.5720    5.1000    2.0770 h1        1 MOL      0.060729
     29 H10        -1.4520    4.6580   -0.0910 hc        1 MOL     -0.015989
     30 H11         0.0800    5.6820    1.3520 hc        1 MOL      0.044015
     31 H12        -0.6200    4.2590    2.0580 hc        1 MOL      0.044015
     32 H13        -1.1680    7.0740   -0.1970 hc        1 MOL      0.046584
     33 H14        -2.7090    6.6550   -0.8260 hc        1 MOL      0.046584
     34 H15        -2.4960    7.3490    0.8990 hc        1 MOL      0.046584
     35 H16        -1.0620    7.1510    2.9500 hc        1 MOL      0.062872
     36 H17        -1.9730    5.7690    3.6500 hc        1 MOL      0.062872
     37 H18        -0.3020    5.8410    3.7870 hc        1 MOL      0.062872
     38 N3         -4.5790    3.3580   -0.5100 n         1 MOL     -0.066172
     39 C13        -5.3380    3.2150   -1.7420 c3        1 MOL     -0.173913
     40 C14        -6.8130    2.7360   -1.5060 c         1 MOL      0.427094
     41 O6         -7.8020    3.0440   -2.1800 o         1 MOL     -0.521492
     42 C15        -4.7430    2.2970   -2.7110 c3        1 MOL      0.120175
     43 C16        -3.2750    2.4380   -2.9360 c         1 MOL      0.651067
     44 O7         -2.8210    3.5160   -3.3710 o         1 MOL     -0.685984
     45 O8         -2.5070    1.4770   -2.8020 o         1 MOL     -0.685984
     46 H19        -4.1760    2.5530   -0.0380 hn        1 MOL      0.075184
     47 H20        -5.4790    4.1810   -2.2330 h1        1 MOL      0.120715
     48 H21        -5.1840    2.4240   -3.6990 hc        1 MOL     -0.041210
     49 H22        -4.9820    1.2840   -2.3690 hc        1 MOL     -0.041210
     50 N4         -6.9730    1.9770   -0.3770 n         1 MOL     -0.172149
     51 C17        -8.1260    1.2500    0.1320 c3        1 MOL     -0.366666
     52 C18        -8.3480    0.0150   -0.7650 c         1 MOL      0.542272
     53 O9         -9.4960   -0.2830   -1.1110 o         1 MOL     -0.583828
     54 H23        -6.1200    1.8930    0.1610 hn        1 MOL      0.164553
     55 H24        -8.9770    1.9260    0.0330 h1        1 MOL      0.148007
     56 H25        -7.8550    1.1100    1.1810 h1        1 MOL      0.148007
     57 N5         -7.2690   -0.6540   -1.2070 n         1 MOL     -0.217003
     58 C19        -7.3320   -1.8750   -1.9440 c3        1 MOL      0.029350
     59 C20        -7.2520   -3.1020   -1.0260 c         1 MOL      0.410395
     60 O10        -7.6090   -4.1840   -1.5530 o         1 MOL     -0.579677
     61 C21        -6.2170   -1.8970   -2.9820 c3        1 MOL     -0.119464
     62 C22        -4.7680   -1.7130   -2.6160 c         1 MOL      0.688838
     63 O11        -3.8440   -1.3900   -3.4210 o         1 MOL     -0.747324
     64 O12        -4.3410   -1.9230   -1.4380 o         1 MOL     -0.747324
     65 H26        -6.3860   -0.3230   -0.8500 hn        1 MOL      0.276562
     66 H27        -8.2600   -2.0290   -2.5000 h1        1 MOL      0.072555
     67 H28        -6.4450   -1.0430   -3.6270 hc        1 MOL      0.033522
     68 H29        -6.2950   -2.8140   -3.5660 hc        1 MOL      0.033522
     69 N6         -6.8080   -2.9260    0.1990 n         1 MOL     -0.189053
     70 C23        -6.6260   -3.9350    1.3180 c3        1 MOL     -0.121557
     71 C24        -5.2580   -4.6450    1.3190 c         1 MOL      0.505802
     72 O13        -5.1820   -5.6560    2.0830 o         1 MOL     -0.598113
     73 H30        -6.5570   -1.9810    0.4670 hn        1 MOL      0.139763
     74 H31        -7.4820   -4.6010    1.3840 h1        1 MOL      0.090280
     75 H32        -6.5300   -3.4020    2.2670 h1        1 MOL      0.090280
     76 N7         -4.2150   -4.1010    0.7180 n         1 MOL     -0.187005
     77 C25        -2.8300   -4.5500    0.8530 c3        1 MOL     -0.033574
     78 C26        -1.8310   -3.3920    1.1980 c         1 MOL      0.753846
     79 O14        -2.2040   -2.2780    0.8930 o         1 MOL     -0.828696
     80 C27        -2.3180   -5.3140   -0.4070 c3        1 MOL     -0.091577
     81 C28        -2.3650   -4.7330   -1.8260 c3        1 MOL     -0.068540
     82 C29        -1.2070   -3.8520   -2.2730 c         1 MOL      0.434105
     83 N8         -0.4240   -4.2640   -3.2350 n         1 MOL     -0.673602
     84 O15        -0.9340   -2.8370   -1.6590 o         1 MOL     -0.450592
     85 H33        -4.2990   -3.3190    0.0810 hn        1 MOL      0.233014
     86 H34        -2.6890   -5.2410    1.6810 h1        1 MOL      0.033895
     87 H35        -2.8720   -6.2290   -0.5910 hc        1 MOL      0.030176
     88 H36        -1.2970   -5.6250   -0.2370 hc        1 MOL      0.030176
     89 H37        -3.3350   -4.2540   -1.9330 hc        1 MOL      0.058789
     90 H38        -2.3750   -5.5610   -2.5350 hc        1 MOL      0.058789
     91 H39        -0.6940   -5.0980   -3.7460 hn        1 MOL      0.336157
     92 H40         0.2350   -3.5890   -3.6010 hn        1 MOL      0.336157
     93 N9         -0.6230   -3.6000    1.6670 n         1 MOL     -0.394464
     94 C30         0.4380   -2.6480    1.8930 c3        1 MOL     -0.026932
     95 C31         1.6370   -3.0590    0.9810 c         1 MOL      0.304752
     96 O16         2.2840   -4.0690    1.2820 o         1 MOL     -0.562800
     97 C32         0.7500   -2.4850    3.3780 c3        1 MOL      0.180369
     98 C33         1.8680   -1.4440    3.5640 c3        1 MOL     -0.153714
     99 C34        -0.5450   -2.2190    4.1890 c3        1 MOL     -0.153714
    100 H41        -0.4400   -4.5720    1.8810 hn        1 MOL      0.251817
    101 H42         0.0480   -1.6970    1.5280 h1        1 MOL      0.152972
    102 H43         1.1330   -3.3920    3.8400 hc        1 MOL     -0.020183
    103 H44         2.4080   -1.6750    4.4870 hc        1 MOL      0.024806
    104 H45         2.5500   -1.4120    2.7170 hc        1 MOL      0.024806
    105 H46         1.4860   -0.4270    3.6960 hc        1 MOL      0.024806
    106 H47        -0.9090   -1.2270    3.9380 hc        1 MOL      0.024806
    107 H48        -1.2660   -2.9960    3.9220 hc        1 MOL      0.024806
    108 H49        -0.3150   -2.2510    5.2500 hc        1 MOL      0.024806
    109 N10         1.9940   -2.3620   -0.0620 n         1 MOL     -0.048625
    110 C35         3.1540   -2.6570   -0.8390 c3        1 MOL      0.032682
    111 C36         4.3920   -1.9440   -0.2370 c         1 MOL      0.366221
    112 O17         4.3170   -1.3360    0.8580 o         1 MOL     -0.291098
    113 C37         2.7820   -2.1830   -2.2300 c3        1 MOL     -0.208898
    114 C38         3.1870   -0.7620   -2.5220 c         1 MOL      0.524731
    115 N11         2.2810    0.1000   -2.2670 n         1 MOL     -0.574864
    116 O18         4.2800   -0.4680   -3.0160 o         1 MOL     -0.560116
    117 H50         1.5290   -1.4930   -0.3060 hn        1 MOL      0.173066
    118 H51         3.3600   -3.7220   -0.9740 h1        1 MOL      0.064313
    119 H52         1.7100   -2.3320   -2.3700 hc        1 MOL      0.059864
    120 H53         3.3700   -2.6920   -2.9920 hc        1 MOL      0.059864
    121 H54         1.3340   -0.1190   -1.9810 hn        1 MOL      0.332803
    122 H55         2.4550    1.0520   -2.5850 hn        1 MOL      0.332803
    123 N12         5.5800   -2.0970   -0.9340 n         1 MOL     -0.544556
    124 C39         6.8650   -1.5060   -0.4630 c3        1 MOL      0.129584
    125 C40         6.9340    0.0690   -0.4180 c         1 MOL      0.700243
    126 O19         7.4820    0.6400    0.5400 o         1 MOL     -0.548120
    127 C41         8.0320   -2.0620   -1.2950 c3        1 MOL     -0.007076
    128 C42         9.3600   -1.9620   -0.6320 ca        1 MOL     -0.106656
    129 C43         9.7510   -2.9800    0.2920 ca        1 MOL     -0.081581
    130 C44        10.1450   -0.8150   -0.7960 ca        1 MOL     -0.081581
    131 C45        10.8550   -2.7000    1.1260 ca        1 MOL     -0.322434
    132 C46        11.3190   -0.5920   -0.0320 ca        1 MOL     -0.322434
    133 C47        11.6190   -1.4740    1.0410 ca        1 MOL      0.403678
    134 O20        12.6010   -1.1880    1.9430 oh        1 MOL     -0.550203
    135 H56         5.6550   -2.7590   -1.6990 hn        1 MOL      0.310193
    136 H57         7.0280   -1.8260    0.5640 h1        1 MOL      0.060308
    137 H58         8.0410   -1.6670   -2.3160 hc        1 MOL      0.029581
    138 H59         7.8890   -3.1410   -1.4370 hc        1 MOL      0.029581
    139 H60         9.1790   -3.8810    0.4500 ha        1 MOL      0.129576
    140 H61         9.8580   -0.1530   -1.5980 ha        1 MOL      0.129576
    141 H62        11.1430   -3.4360    1.8620 ha        1 MOL      0.148906
    142 H63        11.9300    0.2910   -0.1570 ha        1 MOL      0.148906
    143 H64        13.1290   -0.4180    1.7210 ho        1 MOL      0.397815
    144 N13         6.2880    0.7580   -1.3770 n         1 MOL     -0.564101
    145 C48         6.0750    2.2130   -1.3370 c3        1 MOL     -0.039992
    146 C49         5.1180    2.6460   -0.1880 c         1 MOL      0.290441
    147 O21         5.3170    3.7910    0.2210 o         1 MOL     -0.494670
    148 C50         5.5380    2.5980   -2.7180 c3        1 MOL      0.048003
    149 C51         6.6080    2.4540   -3.8730 c3        1 MOL     -0.269957
    150 C52         6.1390    3.2750   -5.0690 c         1 MOL      0.700442
    151 O22         5.2250    2.8540   -5.8130 o         1 MOL     -0.738678
    152 O23         6.6540    4.4060   -5.2620 o         1 MOL     -0.738678
    153 H65         5.8610    0.2880   -2.1510 hn        1 MOL      0.306163
    154 H66         7.0190    2.7120   -1.1370 h1        1 MOL      0.136737
    155 H67         5.1850    3.6230   -2.7760 hc        1 MOL      0.062268
    156 H68         4.6680    1.9760   -2.9550 hc        1 MOL      0.062268
    157 H69         6.7360    1.4170   -4.1980 hc        1 MOL      0.032872
    158 H70         7.6100    2.8370   -3.6290 hc        1 MOL      0.032872
    159 N14         4.2000    1.7920    0.4140 n         1 MOL     -0.009081
    160 C53         3.4500    2.0300    1.6190 c3        1 MOL     -0.112540
    161 C54         4.1540    1.5430    2.9540 c         1 MOL      0.480030
    162 O24         3.8800    2.0570    4.0560 o         1 MOL     -0.559474
    163 C55         2.0860    1.3310    1.4650 c3        1 MOL      0.012676
    164 C56         1.1590    1.9440    0.3590 c3        1 MOL      0.088541
    165 C57         0.0240    1.0330    0.1140 c         1 MOL      0.441704
    166 O25        -1.1520    1.4270    0.1040 o         1 MOL     -0.620207
    167 O26         0.2760   -0.0800   -0.3170 o         1 MOL     -0.620207
    168 H71         4.2140    0.9040   -0.0540 hn        1 MOL      0.022557
    169 H72         3.2850    3.0880    1.8450 h1        1 MOL      0.089247
    170 H73         1.5560    1.4730    2.4010 hc        1 MOL      0.070727
    171 H74         2.1700    0.2600    1.2440 hc        1 MOL      0.070727
    172 H75         1.7790    2.2460   -0.4800 hc        1 MOL     -0.029879
    173 H76         0.6670    2.8390    0.7360 hc        1 MOL     -0.029879
    174 N15         5.1600    0.6450    2.8240 n         1 MOL     -0.114600
    175 C58         6.0140    0.1440    3.9260 c3        1 MOL     -0.263238
    176 H77         5.4100   -0.4500    4.6120 h1        1 MOL      0.096740
    177 H78         6.8100   -0.4760    3.5150 h1        1 MOL      0.096740
    178 H79         6.4490    0.9870    4.4620 h1        1 MOL      0.096740
    179 H80         5.2330    0.1470    1.9390 hn        1 MOL      0.071209
    180 Ca1        -2.2190   -0.5770   -1.2380 Ca        1 MOL      1.735233
    181 O27        -0.5880   -0.5270   -3.5120 oh        1 MOL     -0.870522
    182 H81        -1.0190    0.0190   -4.1670 ho        1 MOL      0.416375
    183 H82        -0.0240   -1.1030   -4.0220 ho        1 MOL      0.416375
@<TRIPOS>BOND
     1    1    2 1   
     2    1    4 1   
     3    1    5 1   
     4    1    6 1   
     5    2    3 2   
     6    2    7 1   
     7    7    8 1   
     8    7   15 1   
     9    8    9 1   
    10    8   11 1   
    11    8   16 1   
    12    9   10 2   
    13    9   19 1   
    14   11   12 1   
    15   11   17 1   
    16   11   18 1   
    17   12   13 1   
    18   12   14 1   
    19   19   20 1   
    20   19   27 1   
    21   20   21 1   
    22   20   23 1   
    23   20   28 1   
    24   21   22 2   
    25   21   38 1   
    26   23   24 1   
    27   23   25 1   
    28   23   29 1   
    29   24   26 1   
    30   24   30 1   
    31   24   31 1   
    32   25   32 1   
    33   25   33 1   
    34   25   34 1   
    35   26   35 1   
    36   26   36 1   
    37   26   37 1   
    38   38   39 1   
    39   38   46 1   
    40   39   40 1   
    41   39   42 1   
    42   39   47 1   
    43   40   41 2   
    44   40   50 1   
    45   42   43 1   
    46   42   48 1   
    47   42   49 1   
    48   43   44 1   
    49   43   45 1   
    50   50   51 1   
    51   50   54 1   
    52   51   52 1   
    53   51   55 1   
    54   51   56 1   
    55   52   53 2   
    56   52   57 1   
    57   57   58 1   
    58   57   65 1   
    59   58   59 1   
    60   58   61 1   
    61   58   66 1   
    62   59   60 2   
    63   59   69 1   
    64   61   62 1   
    65   61   67 1   
    66   61   68 1   
    67   62   63 1   
    68   62   64 1   
    69   69   70 1   
    70   69   73 1   
    71   70   71 1   
    72   70   74 1   
    73   70   75 1   
    74   71   72 2   
    75   71   76 1   
    76   76   77 1   
    77   76   85 1   
    78   77   78 1   
    79   77   80 1   
    80   77   86 1   
    81   78   79 2   
    82   78   93 1   
    83   80   81 1   
    84   80   87 1   
    85   80   88 1   
    86   81   82 1   
    87   81   89 1   
    88   81   90 1   
    89   82   83 1   
    90   82   84 2   
    91   83   91 1   
    92   83   92 1   
    93   93   94 1   
    94   93  100 1   
    95   94   95 1   
    96   94   97 1   
    97   94  101 1   
    98   95   96 2   
    99   95  109 1   
   100   97   98 1   
   101   97   99 1   
   102   97  102 1   
   103   98  103 1   
   104   98  104 1   
   105   98  105 1   
   106   99  106 1   
   107   99  107 1   
   108   99  108 1   
   109  109  110 1   
   110  109  117 1   
   111  110  111 1   
   112  110  113 1   
   113  110  118 1   
   114  111  112 2   
   115  111  123 1   
   116  113  114 1   
   117  113  119 1   
   118  113  120 1   
   119  114  115 1   
   120  114  116 2   
   121  115  121 1   
   122  115  122 1   
   123  123  124 1   
   124  123  135 1   
   125  124  125 1   
   126  124  127 1   
   127  124  136 1   
   128  125  126 2   
   129  125  144 1   
   130  127  128 1   
   131  127  137 1   
   132  127  138 1   
   133  128  129 ar  
   134  128  130 ar  
   135  129  131 ar  
   136  129  139 1   
   137  130  132 ar  
   138  130  140 1   
   139  131  133 ar  
   140  131  141 1   
   141  132  133 ar  
   142  132  142 1   
   143  133  134 1   
   144  134  143 1   
   145  144  145 1   
   146  144  153 1   
   147  145  146 1   
   148  145  148 1   
   149  145  154 1   
   150  146  147 2   
   151  146  159 1   
   152  148  149 1   
   153  148  155 1   
   154  148  156 1   
   155  149  150 1   
   156  149  157 1   
   157  149  158 1   
   158  150  151 1   
   159  150  152 1   
   160  159  160 1   
   161  159  168 1   
   162  160  161 1   
   163  160  163 1   
   164  160  169 1   
   165  161  162 2   
   166  161  174 1   
   167  163  164 1   
   168  163  170 1   
   169  163  171 1   
   170  164  165 1   
   171  164  172 1   
   172  164  173 1   
   173  165  166 1   
   174  165  167 1   
   175  174  175 1   
   176  174  179 1   
   177  175  176 1   
   178  175  177 1   
   179  175  178 1   
   180  181  182 1   
   181  181  183 1   
@<TRIPOS>SUBSTRUCTURE
     1 MOL         1 TEMP              0 ****  ****    0 ROOT
