@<TRIPOS>MOLECULE
MOL
  178   175     1     0     0
SMALL
resp


@<TRIPOS>ATOM
      1 C1          0.7050   -3.3300    5.7050 c3        1 MOL     -0.237344
      2 C2          0.5150   -2.7230    4.3380 c         1 MOL      0.744316
      3 O1         -0.3370   -3.2600    3.6290 o         1 MOL     -0.569830
      4 H1         -0.0390   -4.1120    5.8610 hc        1 MOL      0.049722
      5 H2          1.7040   -3.7600    5.7770 hc        1 MOL      0.049722
      6 H3          0.5850   -2.5590    6.4660 hc        1 MOL      0.049722
      7 N1          1.3340   -1.7590    3.9240 n         1 MOL     -0.648134
      8 C3          1.7940   -1.5870    2.5570 c3        1 MOL      0.092534
      9 C4          2.3560   -2.9530    2.0360 c         1 MOL      0.762572
     10 O2          3.1880   -3.4800    2.7620 o         1 MOL     -0.622487
     11 C5          2.9380   -0.5250    2.5820 c3        1 MOL     -0.510261
     12 C6          3.5230   -0.3450    1.1820 c         1 MOL      0.863286
     13 O3          2.9250   -0.7400    0.2050 o         1 MOL     -0.696812
     14 O4          4.4800    0.4290    1.0150 o         1 MOL     -0.696812
     15 H4          1.9570   -1.3070    4.5770 hn        1 MOL      0.327503
     16 H5          0.9550   -1.2900    1.9130 h1        1 MOL      0.072550
     17 H6          3.7240   -0.9020    3.2250 hc        1 MOL      0.124603
     18 H7          2.4830    0.3910    2.9450 hc        1 MOL      0.124603
     19 N2          1.9460   -3.5260    0.9050 n         1 MOL     -0.768800
     20 C7          2.4300   -4.9010    0.6140 c3        1 MOL      0.452405
     21 C8          3.7290   -4.8180   -0.3290 c         1 MOL      0.306017
     22 O5          4.5180   -5.7360   -0.3210 o         1 MOL     -0.554883
     23 C9          1.3160   -5.7440   -0.0590 c3        1 MOL     -0.302909
     24 H8          1.1580   -3.2090    0.3510 hn        1 MOL      0.422519
     25 H9          2.8430   -5.4830    1.4420 h1        1 MOL     -0.006659
     26 H10         0.5830   -5.8750    0.7370 hc        1 MOL      0.067126
     27 H11         0.9120   -5.2550   -0.9450 hc        1 MOL      0.067126
     28 H12         1.7170   -6.7530   -0.2210 hc        1 MOL      0.067126
     29 N3          3.9600   -3.6730   -0.9040 n         1 MOL     -0.077798
     30 C10         5.0750   -3.4510   -1.8280 c3        1 MOL     -0.034844
     31 C11         6.3300   -2.9260   -0.9660 c         1 MOL      0.417921
     32 O6          7.4960   -3.2650   -1.2590 o         1 MOL     -0.557037
     33 C12         4.7550   -2.4220   -2.8500 c3        1 MOL      0.057209
     34 C13         3.4120   -2.4070   -3.4850 c         1 MOL      0.748021
     35 O7          2.5520   -1.5970   -3.1800 o         1 MOL     -0.732312
     36 O8          3.2390   -3.3460   -4.3080 o         1 MOL     -0.732312
     37 H13         3.2180   -2.9800   -0.9570 hn        1 MOL      0.142318
     38 H14         5.3240   -4.3780   -2.3530 h1        1 MOL      0.086678
     39 H15         5.4450   -2.5980   -3.6670 hc        1 MOL     -0.048504
     40 H16         4.9270   -1.4470   -2.3960 hc        1 MOL     -0.048504
     41 N4          6.0560   -2.2490    0.1690 n         1 MOL     -0.013685
     42 C14         7.0220   -1.8780    1.2020 c3        1 MOL     -0.551152
     43 C15         7.6410   -0.5060    1.0710 c         1 MOL      0.682576
     44 O9          8.3420   -0.0730    1.9510 o         1 MOL     -0.597632
     45 H17         5.1070   -1.9190    0.2330 hn        1 MOL      0.020471
     46 H18         7.8620   -2.5590    1.2100 h1        1 MOL      0.213881
     47 H19         6.4300   -1.8550    2.1160 h1        1 MOL      0.213881
     48 N5          7.4060    0.1550   -0.0800 n         1 MOL     -0.463679
     49 C16         8.0070    1.4270   -0.3670 c3        1 MOL     -0.016076
     50 C17         7.4200    2.6380    0.4650 c         1 MOL      0.457804
     51 O10         7.8200    3.8230    0.2510 o         1 MOL     -0.543571
     52 C18         7.9640    1.7730   -1.8190 c3        1 MOL     -0.241523
     53 C19         8.3230    0.6190   -2.7660 c         1 MOL      0.710879
     54 N6          9.4710   -0.0050   -2.5620 n         1 MOL     -0.863081
     55 O11         7.6540    0.4140   -3.7260 o         1 MOL     -0.539474
     56 H20         6.7370   -0.2660   -0.7130 hn        1 MOL      0.373750
     57 H21         9.0670    1.2910   -0.1480 h1        1 MOL      0.076351
     58 H22         8.5680    2.6630   -2.0260 hc        1 MOL      0.073925
     59 H23         6.9370    1.9720   -2.1290 hc        1 MOL      0.073925
     60 H24        10.1340    0.3440   -1.8820 hn        1 MOL      0.379399
     61 H25         9.7790   -0.7800   -3.1330 hn        1 MOL      0.379399
     62 N7          6.5380    2.3870    1.4930 n         1 MOL     -0.184133
     63 C20         6.1330    3.2810    2.5310 c3        1 MOL      0.005499
     64 C21         4.7740    4.0450    2.1430 c         1 MOL      0.447157
     65 O12         4.6550    5.2780    2.4660 o         1 MOL     -0.565242
     66 H26         6.1380    1.4640    1.5790 hn        1 MOL      0.224583
     67 H27         6.9410    3.9890    2.6880 h1        1 MOL      0.053058
     68 H28         6.1170    2.7360    3.4770 h1        1 MOL      0.053058
     69 N8          3.8480    3.4210    1.3860 n         1 MOL     -0.257594
     70 C22         2.6350    4.1110    0.9250 c3        1 MOL      0.031769
     71 C23         1.4550    3.0680    0.7330 c         1 MOL      0.423871
     72 O13         1.5870    1.9120    0.2760 o         1 MOL     -0.355275
     73 C24         2.8010    4.9610   -0.3480 c3        1 MOL      0.388315
     74 C25         3.4650    6.3490   -0.0660 c3        1 MOL     -0.593852
     75 O14         3.6120    4.2790   -1.2610 oh        1 MOL     -0.683073
     76 H29         3.9430    2.4730    1.0530 hn        1 MOL      0.125410
     77 H30         2.2870    4.8490    1.6450 h1        1 MOL      0.061316
     78 H31         1.8300    5.1780   -0.7940 h1        1 MOL      0.024271
     79 H32         4.3980    4.8360   -1.2860 ho        1 MOL      0.446475
     80 H33         4.3450    6.4340    0.5670 hc        1 MOL      0.155600
     81 H34         3.7990    6.8130   -0.9870 hc        1 MOL      0.155600
     82 H35         2.6430    6.8910    0.4060 hc        1 MOL      0.155600
     83 N9          0.2260    3.5340    1.0000 n         1 MOL     -0.636023
     84 C26        -0.9640    2.6540    1.1000 c3        1 MOL      0.222261
     85 C27        -1.9860    2.8630   -0.0780 c         1 MOL      0.504260
     86 O15        -2.3610    3.9650   -0.4500 o         1 MOL     -0.589447
     87 C28        -1.5210    2.6590    2.6090 c3        1 MOL      0.172289
     88 C29        -0.8080    1.5530    3.5210 c3        1 MOL      0.036699
     89 C30        -3.0760    2.6540    2.7550 c3        1 MOL     -0.246941
     90 C31        -1.1440    1.6690    4.9850 c3        1 MOL     -0.391295
     91 H36         0.1070    4.4980    1.2790 hn        1 MOL      0.324807
     92 H37        -0.6170    1.6490    0.8830 h1        1 MOL     -0.101891
     93 H38        -1.1820    3.6130    2.9990 hc        1 MOL     -0.032418
     94 H39         0.2280    1.7980    3.2720 hc        1 MOL      0.045489
     95 H40        -0.9860    0.5430    3.1410 hc        1 MOL      0.045489
     96 H41        -3.5080    3.5740    2.3390 hc        1 MOL      0.036286
     97 H42        -3.3870    1.7870    2.1830 hc        1 MOL      0.036286
     98 H43        -3.4390    2.4250    3.7580 hc        1 MOL      0.036286
     99 H44        -0.3670    1.1680    5.5730 hc        1 MOL      0.094891
    100 H45        -1.2790    2.7200    5.2480 hc        1 MOL      0.094891
    101 H46        -2.0630    1.1060    5.1420 hc        1 MOL      0.094891
    102 N10        -2.5160    1.7650   -0.5770 n         1 MOL     -0.214278
    103 C32        -3.5570    1.7780   -1.6110 c3        1 MOL      0.061785
    104 C33        -4.9990    1.4890   -1.0800 c         1 MOL      0.377849
    105 O16        -5.0860    1.0370    0.0630 o         1 MOL     -0.351804
    106 C34        -3.2660    0.7740   -2.7180 c3        1 MOL     -0.267471
    107 C35        -1.8870    0.8240   -3.2970 c         1 MOL      0.715868
    108 O17        -1.0520   -0.0340   -2.8700 o         1 MOL     -0.681317
    109 O18        -1.6040    1.7330   -4.1140 o         1 MOL     -0.681317
    110 H47        -2.1130    0.8990   -0.2400 hn        1 MOL      0.246622
    111 H48        -3.5510    2.6950   -2.2080 h1        1 MOL      0.067355
    112 H49        -3.9620    0.9690   -3.5330 hc        1 MOL      0.072446
    113 H50        -3.4710   -0.1780   -2.2240 hc        1 MOL      0.072446
    114 N11        -6.1130    1.6490   -1.7910 n         1 MOL     -0.525133
    115 C36        -7.4750    1.3840   -1.2230 c3        1 MOL      0.274523
    116 C37        -7.6130   -0.1080   -0.7880 c         1 MOL      0.335697
    117 O19        -8.0850   -0.3890    0.3450 o         1 MOL     -0.466962
    118 C38        -8.6710    1.9700   -2.0450 c3        1 MOL     -0.253779
    119 C39        -9.9760    1.7750   -1.3170 ca        1 MOL      0.071347
    120 C40       -10.2440    2.6960   -0.2400 ca        1 MOL     -0.157058
    121 C41       -10.8060    0.6260   -1.4240 ca        1 MOL     -0.157058
    122 C42       -11.2720    2.5190    0.7010 ca        1 MOL     -0.166644
    123 C43       -11.8870    0.4440   -0.5510 ca        1 MOL     -0.166644
    124 C44       -12.0720    1.4040    0.4800 ca        1 MOL     -0.019381
    125 H51        -6.1110    1.9370   -2.7640 hn        1 MOL      0.287624
    126 H52        -7.4350    1.9650   -0.2990 h1        1 MOL      0.080571
    127 H53        -8.7280    1.4990   -3.0240 hc        1 MOL      0.088122
    128 H54        -8.4120    3.0090   -2.2040 hc        1 MOL      0.088122
    129 H55        -9.4890    3.4520   -0.1000 ha        1 MOL      0.123290
    130 H56       -10.4740   -0.2330   -1.9810 ha        1 MOL      0.123290
    131 H57       -11.3410    3.1750    1.5450 ha        1 MOL      0.140031
    132 H58       -12.4320   -0.4810   -0.4450 ha        1 MOL      0.140031
    133 H59       -12.8940    1.1910    1.1480 ha        1 MOL      0.066040
    134 N12        -7.1420   -1.1510   -1.5570 n         1 MOL     -0.082141
    135 C45        -7.1250   -2.5330   -1.0370 c3        1 MOL      0.196506
    136 C46        -6.2730   -2.6900    0.2520 c         1 MOL      0.226523
    137 O20        -6.6170   -3.4500    1.2050 o         1 MOL     -0.483951
    138 C47        -6.7190   -3.3750   -2.1760 c3        1 MOL     -0.031936
    139 C48        -7.4080   -2.6830   -3.3830 c3        1 MOL     -0.188528
    140 C49        -7.0990   -1.2170   -3.0160 c3        1 MOL      0.082258
    141 H60        -8.1620   -2.8000   -0.8320 h1        1 MOL      0.008212
    142 H61        -5.6540   -3.2900   -2.4130 hc        1 MOL      0.041213
    143 H62        -6.9400   -4.4050   -1.9110 hc        1 MOL      0.041213
    144 H63        -6.9050   -2.9290   -4.3240 hc        1 MOL      0.063205
    145 H64        -8.4660   -2.9520   -3.4070 hc        1 MOL      0.063205
    146 H65        -6.1130   -0.9330   -3.3610 h1        1 MOL      0.003433
    147 H66        -7.8510   -0.5900   -3.4910 h1        1 MOL      0.003433
    148 N13        -5.1270   -2.0320    0.3130 n         1 MOL     -0.179948
    149 C50        -4.2900   -2.1470    1.5480 c3        1 MOL     -0.101486
    150 C51        -4.9800   -1.4970    2.7660 c         1 MOL      0.420399
    151 O21        -4.8380   -1.8570    3.9020 o         1 MOL     -0.560526
    152 C52        -2.9480   -1.5140    1.2450 c3        1 MOL     -0.009894
    153 C53        -2.1530   -2.2820    0.2090 c3        1 MOL     -0.144730
    154 C54        -0.7770   -1.7060   -0.0800 c         1 MOL      0.655258
    155 O22        -0.5630   -0.4990    0.2580 o         1 MOL     -0.717730
    156 O23         0.0450   -2.2950   -0.8680 o         1 MOL     -0.717730
    157 H67        -4.7460   -1.3440   -0.3300 hn        1 MOL      0.165475
    158 H68        -4.1270   -3.1760    1.8870 h1        1 MOL      0.129866
    159 H69        -2.3580   -1.6560    2.1490 hc        1 MOL      0.058497
    160 H70        -3.1110   -0.4700    0.9720 hc        1 MOL      0.058497
    161 H71        -2.6770   -2.3350   -0.7420 hc        1 MOL      0.039520
    162 H72        -1.9220   -3.2820    0.5920 hc        1 MOL      0.039520
    163 N14        -5.6890   -0.4360    2.4570 n         1 MOL      0.134272
    164 C55        -6.5830    0.1940    3.4260 c3        1 MOL     -0.348526
    165 H73        -7.1660   -0.5740    3.9350 h1        1 MOL      0.110002
    166 H74        -5.9950    0.7470    4.1590 h1        1 MOL      0.110002
    167 H75        -7.2560    0.8780    2.9100 h1        1 MOL      0.110002
    168 H76        -5.6820   -0.1280    1.4970 hn        1 MOL     -0.035196
    169 Ca1         1.1990    0.0200   -1.6240 Ca        1 MOL      1.699642
    170 O24         3.8040    1.4120   -1.5640 oh        1 MOL     -0.811049
    171 H77         3.6560    2.3400   -1.3650 ho        1 MOL      0.386026
    172 H78         3.9680    1.0060   -0.7100 ho        1 MOL      0.386026
    173 O25         0.4460    2.4950   -2.4510 oh        1 MOL     -0.811049
    174 H79        -0.3170    2.3990   -3.0210 ho        1 MOL      0.386026
    175 H80         1.0190    3.1020   -2.9060 ho        1 MOL      0.386026
    176 O26         2.0690    0.9350   -4.1840 oh        1 MOL     -0.811049
    177 H81         2.1010    1.8590   -4.4470 ho        1 MOL      0.386026
    178 H82         2.9670    0.6290   -4.2580 ho        1 MOL      0.386026
@<TRIPOS>BOND
     1    1    2 1   
     2    1    4 1   
     3    1    5 1   
     4    1    6 1   
     5    2    3 2   
     6    2    7 1   
     7    7    8 1   
     8    7   15 1   
     9    8    9 1   
    10    8   11 1   
    11    8   16 1   
    12    9   10 2   
    13    9   19 1   
    14   11   12 1   
    15   11   17 1   
    16   11   18 1   
    17   12   13 1   
    18   12   14 1   
    19   19   20 1   
    20   19   24 1   
    21   20   21 1   
    22   20   23 1   
    23   20   25 1   
    24   21   22 2   
    25   21   29 1   
    26   23   26 1   
    27   23   27 1   
    28   23   28 1   
    29   29   30 1   
    30   29   37 1   
    31   30   31 1   
    32   30   33 1   
    33   30   38 1   
    34   31   32 2   
    35   31   41 1   
    36   33   34 1   
    37   33   39 1   
    38   33   40 1   
    39   34   35 1   
    40   34   36 1   
    41   41   42 1   
    42   41   45 1   
    43   42   43 1   
    44   42   46 1   
    45   42   47 1   
    46   43   44 2   
    47   43   48 1   
    48   48   49 1   
    49   48   56 1   
    50   49   50 1   
    51   49   52 1   
    52   49   57 1   
    53   50   51 2   
    54   50   62 1   
    55   52   53 1   
    56   52   58 1   
    57   52   59 1   
    58   53   54 1   
    59   53   55 2   
    60   54   60 1   
    61   54   61 1   
    62   62   63 1   
    63   62   66 1   
    64   63   64 1   
    65   63   67 1   
    66   63   68 1   
    67   64   65 2   
    68   64   69 1   
    69   69   70 1   
    70   69   76 1   
    71   70   71 1   
    72   70   73 1   
    73   70   77 1   
    74   71   72 2   
    75   71   83 1   
    76   73   74 1   
    77   73   75 1   
    78   73   78 1   
    79   74   80 1   
    80   74   81 1   
    81   74   82 1   
    82   75   79 1   
    83   83   84 1   
    84   83   91 1   
    85   84   85 1   
    86   84   87 1   
    87   84   92 1   
    88   85   86 2   
    89   85  102 1   
    90   87   88 1   
    91   87   89 1   
    92   87   93 1   
    93   88   90 1   
    94   88   94 1   
    95   88   95 1   
    96   89   96 1   
    97   89   97 1   
    98   89   98 1   
    99   90   99 1   
   100   90  100 1   
   101   90  101 1   
   102  102  103 1   
   103  102  110 1   
   104  103  104 1   
   105  103  106 1   
   106  103  111 1   
   107  104  105 2   
   108  104  114 1   
   109  106  107 1   
   110  106  112 1   
   111  106  113 1   
   112  107  108 1   
   113  107  109 1   
   114  114  115 1   
   115  114  125 1   
   116  115  116 1   
   117  115  118 1   
   118  115  126 1   
   119  116  117 2   
   120  116  134 1   
   121  118  119 1   
   122  118  127 1   
   123  118  128 1   
   124  119  120 ar  
   125  119  121 ar  
   126  120  122 ar  
   127  120  129 1   
   128  121  123 ar  
   129  121  130 1   
   130  122  124 ar  
   131  122  131 1   
   132  123  124 ar  
   133  123  132 1   
   134  124  133 1   
   135  134  135 1   
   136  134  140 1   
   137  135  136 1   
   138  135  138 1   
   139  135  141 1   
   140  136  137 2   
   141  136  148 1   
   142  138  139 1   
   143  138  142 1   
   144  138  143 1   
   145  139  140 1   
   146  139  144 1   
   147  139  145 1   
   148  140  146 1   
   149  140  147 1   
   150  148  149 1   
   151  148  157 1   
   152  149  150 1   
   153  149  152 1   
   154  149  158 1   
   155  150  151 2   
   156  150  163 1   
   157  152  153 1   
   158  152  159 1   
   159  152  160 1   
   160  153  154 1   
   161  153  161 1   
   162  153  162 1   
   163  154  155 1   
   164  154  156 1   
   165  163  164 1   
   166  163  168 1   
   167  164  165 1   
   168  164  166 1   
   169  164  167 1   
   170  170  171 1   
   171  170  172 1   
   172  173  174 1   
   173  173  175 1   
   174  176  177 1   
   175  176  178 1   
@<TRIPOS>SUBSTRUCTURE
     1 MOL         1 TEMP              0 ****  ****    0 ROOT
