@<TRIPOS>MOLECULE
MOL
  189   185     1     0     0
SMALL
resp


@<TRIPOS>ATOM
      1 C1          0.6810   -4.5620    5.9090 c3        1 MOL     -0.387153
      2 C2          1.2340   -3.9280    4.6470 c         1 MOL      0.735333
      3 O1          1.5030   -2.6800    4.7020 o         1 MOL     -0.611261
      4 H1          0.7290   -5.6470    5.8210 hc        1 MOL      0.098993
      5 H2          1.2720   -4.2420    6.7670 hc        1 MOL      0.098993
      6 H3         -0.3560   -4.2550    6.0470 hc        1 MOL      0.098993
      7 N1          1.5620   -4.6950    3.5890 n         1 MOL     -0.644411
      8 C3          2.1640   -4.1780    2.3250 c3        1 MOL      0.356979
      9 C4          1.9000   -5.1010    1.0860 c         1 MOL      0.298040
     10 O2          2.4590   -6.2470    1.0510 o         1 MOL     -0.561547
     11 C5          3.7020   -3.9430    2.6170 c3        1 MOL     -0.295648
     12 C6          4.2940   -2.9660    1.5240 c         1 MOL      0.785644
     13 O3          5.4110   -2.4760    1.8700 o         1 MOL     -0.675743
     14 O4          3.5410   -2.6180    0.5310 o         1 MOL     -0.675743
     15 H4          1.3760   -5.6740    3.6910 hn        1 MOL      0.328653
     16 H5          1.7350   -3.2260    2.0310 h1        1 MOL     -0.012010
     17 H6          4.2820   -4.8580    2.5850 hc        1 MOL      0.068150
     18 H7          3.8860   -3.4380    3.5730 hc        1 MOL      0.068150
     19 N2          1.2190   -4.6230    0.0430 n         1 MOL      0.009472
     20 C7          0.8110   -5.2690   -1.1990 c3        1 MOL     -0.114192
     21 C8          1.8950   -5.0530   -2.3310 c         1 MOL      0.503326
     22 O5          1.9880   -5.8650   -3.2440 o         1 MOL     -0.582015
     23 C9         -0.5850   -4.6660   -1.5350 c3        1 MOL      0.355554
     24 C10        -1.6290   -5.3590   -0.6470 c3        1 MOL     -0.265046
     25 C11        -1.0290   -4.8030   -3.0270 c3        1 MOL     -0.349944
     26 C12        -2.9620   -4.6660   -0.6790 c3        1 MOL     -0.013275
     27 H8          0.8610   -3.6780    0.1050 hn        1 MOL     -0.002976
     28 H9          0.8470   -6.3490   -1.0560 h1        1 MOL      0.060024
     29 H10        -0.5010   -3.6200   -1.2460 hc        1 MOL     -0.025476
     30 H11        -1.1440   -5.1970    0.3090 hc        1 MOL      0.031545
     31 H12        -1.7320   -6.3890   -0.9740 hc        1 MOL      0.031545
     32 H13        -2.0030   -4.3440   -3.1980 hc        1 MOL      0.086855
     33 H14        -0.3550   -4.3490   -3.7640 hc        1 MOL      0.086855
     34 H15        -1.0620   -5.8680   -3.2700 hc        1 MOL      0.086855
     35 H16        -2.8850   -3.5710   -0.7120 hc        1 MOL      0.042899
     36 H17        -3.5800   -5.0140   -1.5070 hc        1 MOL      0.042899
     37 H18        -3.5710   -4.9660    0.1790 hc        1 MOL      0.042899
     38 N3          2.6190   -3.9240   -2.3550 n         1 MOL     -0.254755
     39 C13         3.5770   -3.5230   -3.4490 c3        1 MOL      0.065059
     40 C14         5.0350   -3.1930   -3.0410 c         1 MOL      0.339890
     41 O6          5.9480   -3.2430   -3.8390 o         1 MOL     -0.538008
     42 C15         3.0820   -2.3320   -4.1750 c3        1 MOL     -0.297014
     43 C16         2.3110   -1.3080   -3.3330 c         1 MOL      0.707645
     44 O7          2.6410   -1.0990   -2.1330 o         1 MOL     -0.690549
     45 O8          1.3840   -0.7000   -3.9440 o         1 MOL     -0.690549
     46 H19         2.5510   -3.3450   -1.5290 hn        1 MOL      0.149651
     47 H20         3.6380   -4.3520   -4.1480 h1        1 MOL      0.097195
     48 H21         2.2980   -2.7510   -4.8040 hc        1 MOL      0.082421
     49 H22         3.8680   -1.8500   -4.7620 hc        1 MOL      0.082421
     50 N4          5.3290   -2.9080   -1.7390 n         1 MOL     -0.083843
     51 C17         6.6870   -2.7340   -1.2180 c3        1 MOL     -0.137921
     52 C18         7.3140   -1.3140   -1.3910 c         1 MOL      0.377262
     53 O9          8.5810   -1.2390   -1.3210 o         1 MOL     -0.573948
     54 H23         4.5890   -2.9150   -1.0570 hn        1 MOL      0.043093
     55 H24         7.2750   -3.5180   -1.6860 h1        1 MOL      0.094194
     56 H25         6.6650   -2.9950   -0.1650 h1        1 MOL      0.094194
     57 N5          6.5010   -0.2980   -1.6500 n         1 MOL     -0.017507
     58 C19         6.8440    1.0410   -2.0760 c3        1 MOL     -0.157200
     59 C20         7.1730    1.9840   -0.9440 c         1 MOL      0.482662
     60 O10         8.0200    2.9050   -1.0550 o         1 MOL     -0.582516
     61 C21         5.5670    1.6440   -2.8250 c3        1 MOL     -0.136131
     62 C22         4.2590    1.7250   -2.0810 c         1 MOL      0.798379
     63 O11         4.1400    1.1710   -0.9720 o         1 MOL     -0.697685
     64 O12         3.3940    2.4780   -2.5500 o         1 MOL     -0.697685
     65 H26         5.5180   -0.5090   -1.6740 hn        1 MOL      0.143453
     66 H27         7.7270    0.9380   -2.7090 h1        1 MOL      0.109676
     67 H28         5.4210    1.1250   -3.7730 hc        1 MOL      0.050049
     68 H29         5.7810    2.6620   -3.1700 hc        1 MOL      0.050049
     69 N6          6.6020    1.6880    0.2220 n         1 MOL     -0.232546
     70 C23         6.7960    2.4130    1.4920 c3        1 MOL     -0.009528
     71 C24         5.7560    3.5040    1.7850 c         1 MOL      0.446487
     72 O13         6.0580    4.4120    2.5190 o         1 MOL     -0.592857
     73 H30         5.9100    0.9540    0.2040 hn        1 MOL      0.168678
     74 H31         7.7870    2.8640    1.5800 h1        1 MOL      0.055608
     75 H32         6.8130    1.6750    2.2920 h1        1 MOL      0.055608
     76 N7          4.6440    3.5180    1.0350 n         1 MOL     -0.107759
     77 C25         3.5400    4.4090    1.1780 c3        1 MOL      0.159410
     78 C26         2.3440    3.4560    1.5640 c         1 MOL      0.219489
     79 O14         2.3530    2.2640    1.3000 o         1 MOL     -0.343191
     80 C27         3.3060    5.2720   -0.1070 c3        1 MOL     -0.135526
     81 C28         4.4720    6.2570   -0.3610 c3        1 MOL     -0.022719
     82 C29         4.2940    7.1340   -1.5700 c         1 MOL      0.572958
     83 N8          5.3060    7.2780   -2.4220 n         1 MOL     -0.734761
     84 O15         3.1960    7.6510   -1.8210 o         1 MOL     -0.566572
     85 H33         4.4640    2.7510    0.4070 hn        1 MOL      0.041707
     86 H34         3.7320    5.0870    2.0070 h1        1 MOL      0.008168
     87 H35         2.3590    5.7760    0.0900 hc        1 MOL      0.071272
     88 H36         3.3260    4.6130   -0.9670 hc        1 MOL      0.071272
     89 H37         5.4250    5.7390   -0.4170 hc        1 MOL      0.015195
     90 H38         4.4780    6.9270    0.4970 hc        1 MOL      0.015195
     91 H39         6.2380    6.9380   -2.1900 hn        1 MOL      0.342974
     92 H40         5.1270    7.8430   -3.2430 hn        1 MOL      0.342974
     93 N9          1.3010    4.0670    2.1490 n         1 MOL     -0.271446
     94 C30         0.0980    3.2340    2.5030 c3        1 MOL     -0.085257
     95 C31        -1.0860    3.5270    1.5820 c         1 MOL      0.565317
     96 O16        -1.5650    4.6290    1.6210 o         1 MOL     -0.560383
     97 C32        -0.2860    3.3990    3.9720 c3        1 MOL      0.200688
     98 C33        -1.5950    2.6980    4.3520 c3        1 MOL     -0.239856
     99 C34         0.8660    2.8420    4.8110 c3        1 MOL     -0.239856
    100 H41         1.3830    5.0530    2.3290 hn        1 MOL      0.268506
    101 H42         0.3300    2.1680    2.4460 h1        1 MOL      0.103037
    102 H43        -0.3770    4.4340    4.3070 hc        1 MOL     -0.022255
    103 H44        -1.8920    2.7670    5.3930 hc        1 MOL      0.048589
    104 H45        -2.3070    3.0660    3.6060 hc        1 MOL      0.048589
    105 H46        -1.5070    1.6370    4.1080 hc        1 MOL      0.048589
    106 H47         1.1690    1.8400    4.4950 hc        1 MOL      0.048589
    107 H48         1.7440    3.4490    4.5740 hc        1 MOL      0.048589
    108 H49         0.6760    2.8480    5.8840 hc        1 MOL      0.048589
    109 N10        -1.4880    2.5510    0.6490 n         1 MOL     -0.438230
    110 C35        -2.7420    2.7060   -0.1720 c3        1 MOL      0.291989
    111 C36        -4.0300    2.4810    0.6680 c         1 MOL      0.009834
    112 O17        -3.9470    1.8190    1.7300 o         1 MOL     -0.086771
    113 C37        -2.6420    1.6790   -1.3420 c3        1 MOL     -0.555289
    114 C38        -3.8710    1.6100   -2.2900 c         1 MOL      0.767276
    115 N11        -4.2000    2.6930   -2.9580 n         1 MOL     -0.756793
    116 O18        -4.5960    0.6270   -2.3700 o         1 MOL     -0.565911
    117 H50        -1.0180    1.6580    0.6060 hn        1 MOL      0.226829
    118 H51        -2.7580    3.7070   -0.5860 h1        1 MOL      0.029273
    119 H52        -2.5060    0.6970   -0.8900 hc        1 MOL      0.196484
    120 H53        -1.6900    1.7940   -1.8560 hc        1 MOL      0.196484
    121 H54        -3.7090    3.5710   -2.8140 hn        1 MOL      0.344060
    122 H55        -5.0930    2.6320   -3.4360 hn        1 MOL      0.344060
    123 N12        -5.1990    3.0020    0.1920 n         1 MOL     -0.170458
    124 C39        -6.5720    2.7760    0.7980 c3        1 MOL      0.091112
    125 C40        -6.7890    1.2830    1.1560 c         1 MOL      0.281808
    126 O19        -7.2930    0.9170    2.1760 o         1 MOL     -0.513136
    127 C41        -7.7110    3.3150   -0.0520 c3        1 MOL     -0.228342
    128 C42        -7.6300    3.1560   -1.5430 ca        1 MOL      0.119371
    129 C43        -7.1990    4.1620   -2.3610 ca        1 MOL     -0.200520
    130 C44        -8.0190    1.9580   -2.1110 ca        1 MOL     -0.200520
    131 C45        -6.9720    3.9610   -3.7030 ca        1 MOL     -0.201719
    132 C46        -7.8820    1.7290   -3.4740 ca        1 MOL     -0.201719
    133 C47        -7.3610    2.7490   -4.3310 ca        1 MOL      0.240499
    134 O20        -6.9790    2.3970   -5.6750 oh        1 MOL     -0.559034
    135 H56        -5.1040    3.6410   -0.5860 hn        1 MOL      0.161093
    136 H57        -6.5740    3.3340    1.7300 h1        1 MOL      0.057976
    137 H58        -7.9350    4.3740    0.1250 hc        1 MOL      0.083381
    138 H59        -8.6010    2.7340    0.1660 hc        1 MOL      0.083381
    139 H60        -7.0560    5.1860   -2.0370 ha        1 MOL      0.124252
    140 H61        -8.4420    1.1500   -1.5390 ha        1 MOL      0.124252
    141 H62        -6.6010    4.7780   -4.3000 ha        1 MOL      0.140588
    142 H63        -8.1760    0.7340   -3.8050 ha        1 MOL      0.140588
    143 H64        -7.2940    1.5160   -5.9050 ho        1 MOL      0.440353
    144 N13        -6.3390    0.3880    0.2510 n         1 MOL      0.058665
    145 C48        -6.6680   -1.0320    0.3360 c3        1 MOL     -0.260015
    146 C49        -5.7990   -1.8290    1.3380 c         1 MOL      0.511703
    147 O21        -6.1820   -2.8730    1.8810 o         1 MOL     -0.521594
    148 C50        -6.5180   -1.6910   -1.0490 c3        1 MOL      0.212277
    149 C51        -7.0940   -3.1320   -1.2020 c3        1 MOL     -0.281534
    150 C52        -7.1150   -3.5400   -2.6570 c         1 MOL      0.717427
    151 O22        -6.8790   -4.7470   -2.8610 o         1 MOL     -0.738478
    152 O23        -7.2090   -2.7240   -3.5920 o         1 MOL     -0.738478
    153 H65        -5.9650    0.7980   -0.5980 hn        1 MOL      0.296069
    154 H66        -7.7070   -1.2240    0.5880 h1        1 MOL      0.090550
    155 H67        -5.4570   -1.6280   -1.3110 hc        1 MOL     -0.017172
    156 H68        -7.0250   -1.0250   -1.7510 hc        1 MOL     -0.017172
    157 H69        -8.1310   -3.2330   -0.8610 hc        1 MOL      0.034395
    158 H70        -6.5070   -3.8030   -0.5680 hc        1 MOL      0.034395
    159 N14        -4.5950   -1.2940    1.5940 n         1 MOL     -0.276918
    160 C53        -3.8270   -1.7460    2.7690 c3        1 MOL     -0.064971
    161 C54        -4.3080   -1.0290    4.0830 c         1 MOL      0.469183
    162 O24        -4.3350   -1.6670    5.1450 o         1 MOL     -0.566522
    163 C55        -2.3310   -1.4050    2.5500 c3        1 MOL      0.017282
    164 C56        -1.7880   -1.7350    1.0700 c3        1 MOL     -0.039429
    165 C57        -0.4050   -1.1320    0.6450 c         1 MOL      0.634292
    166 O25         0.5480   -1.8530    0.3210 o         1 MOL     -0.600677
    167 O26        -0.1050    0.0760    0.6280 o         1 MOL     -0.600677
    168 H71        -4.3660   -0.3930    1.2200 hn        1 MOL      0.002998
    169 H72        -3.9160   -2.8310    2.8730 h1        1 MOL      0.090280
    170 H73        -1.7340   -1.9890    3.2510 hc        1 MOL      0.021769
    171 H74        -2.2020   -0.3400    2.7540 hc        1 MOL      0.021769
    172 H75        -2.4250   -1.3800    0.2570 hc        1 MOL      0.017543
    173 H76        -1.6600   -2.8150    1.1340 hc        1 MOL      0.017543
    174 N15        -4.5280    0.3170    4.0310 n         1 MOL      0.033825
    175 C58        -4.8620    1.1260    5.1980 c3        1 MOL     -0.284391
    176 H77        -5.0450    2.1550    4.8870 h1        1 MOL      0.093767
    177 H78        -5.7580    0.7270    5.6740 h1        1 MOL      0.093767
    178 H79        -4.0340    1.1040    5.9060 h1        1 MOL      0.093767
    179 H80        -4.3650    0.8250    3.1700 hn        1 MOL     -0.026627
    180 Ca1         2.4680   -0.2030    0.2630 Ca        1 MOL      1.745127
    181 O27         1.9650   -0.6020    3.0220 oh        1 MOL     -0.930213
    182 O28         1.0320    1.1090   -1.6530 oh        1 MOL     -0.930213
    183 H81         2.5580   -0.1390    3.6180 ho        1 MOL      0.422439
    184 H82         0.7540    0.5390   -2.3670 ho        1 MOL      0.422439
    185 H83         1.6850   -1.3660    3.5190 ho        1 MOL      0.422439
    186 H84         1.7570    1.6090   -2.0040 ho        1 MOL      0.422439
    187 O29         4.8260   -0.0020    1.8050 oh        1 MOL     -0.930213
    188 H85         4.8890    0.2780    2.7170 ho        1 MOL      0.422439
    189 H86         5.3590   -0.7910    1.7540 ho        1 MOL      0.422439
@<TRIPOS>BOND
     1    1    2 1   
     2    1    4 1   
     3    1    5 1   
     4    1    6 1   
     5    2    3 2   
     6    2    7 1   
     7    7    8 1   
     8    7   15 1   
     9    8    9 1   
    10    8   11 1   
    11    8   16 1   
    12    9   10 2   
    13    9   19 1   
    14   11   12 1   
    15   11   17 1   
    16   11   18 1   
    17   12   13 1   
    18   12   14 1   
    19   19   20 1   
    20   19   27 1   
    21   20   21 1   
    22   20   23 1   
    23   20   28 1   
    24   21   22 2   
    25   21   38 1   
    26   23   24 1   
    27   23   25 1   
    28   23   29 1   
    29   24   26 1   
    30   24   30 1   
    31   24   31 1   
    32   25   32 1   
    33   25   33 1   
    34   25   34 1   
    35   26   35 1   
    36   26   36 1   
    37   26   37 1   
    38   38   39 1   
    39   38   46 1   
    40   39   40 1   
    41   39   42 1   
    42   39   47 1   
    43   40   41 2   
    44   40   50 1   
    45   42   43 1   
    46   42   48 1   
    47   42   49 1   
    48   43   44 1   
    49   43   45 1   
    50   50   51 1   
    51   50   54 1   
    52   51   52 1   
    53   51   55 1   
    54   51   56 1   
    55   52   53 2   
    56   52   57 1   
    57   57   58 1   
    58   57   65 1   
    59   58   59 1   
    60   58   61 1   
    61   58   66 1   
    62   59   60 2   
    63   59   69 1   
    64   61   62 1   
    65   61   67 1   
    66   61   68 1   
    67   62   63 1   
    68   62   64 1   
    69   69   70 1   
    70   69   73 1   
    71   70   71 1   
    72   70   74 1   
    73   70   75 1   
    74   71   72 2   
    75   71   76 1   
    76   76   77 1   
    77   76   85 1   
    78   77   78 1   
    79   77   80 1   
    80   77   86 1   
    81   78   79 2   
    82   78   93 1   
    83   80   81 1   
    84   80   87 1   
    85   80   88 1   
    86   81   82 1   
    87   81   89 1   
    88   81   90 1   
    89   82   83 1   
    90   82   84 2   
    91   83   91 1   
    92   83   92 1   
    93   93   94 1   
    94   93  100 1   
    95   94   95 1   
    96   94   97 1   
    97   94  101 1   
    98   95   96 2   
    99   95  109 1   
   100   97   98 1   
   101   97   99 1   
   102   97  102 1   
   103   98  103 1   
   104   98  104 1   
   105   98  105 1   
   106   99  106 1   
   107   99  107 1   
   108   99  108 1   
   109  109  110 1   
   110  109  117 1   
   111  110  111 1   
   112  110  113 1   
   113  110  118 1   
   114  111  112 2   
   115  111  123 1   
   116  113  114 1   
   117  113  119 1   
   118  113  120 1   
   119  114  115 1   
   120  114  116 2   
   121  115  121 1   
   122  115  122 1   
   123  123  124 1   
   124  123  135 1   
   125  124  125 1   
   126  124  127 1   
   127  124  136 1   
   128  125  126 2   
   129  125  144 1   
   130  127  128 1   
   131  127  137 1   
   132  127  138 1   
   133  128  129 ar  
   134  128  130 ar  
   135  129  131 ar  
   136  129  139 1   
   137  130  132 ar  
   138  130  140 1   
   139  131  133 ar  
   140  131  141 1   
   141  132  133 ar  
   142  132  142 1   
   143  133  134 1   
   144  134  143 1   
   145  144  145 1   
   146  144  153 1   
   147  145  146 1   
   148  145  148 1   
   149  145  154 1   
   150  146  147 2   
   151  146  159 1   
   152  148  149 1   
   153  148  155 1   
   154  148  156 1   
   155  149  150 1   
   156  149  157 1   
   157  149  158 1   
   158  150  151 1   
   159  150  152 1   
   160  159  160 1   
   161  159  168 1   
   162  160  161 1   
   163  160  163 1   
   164  160  169 1   
   165  161  162 2   
   166  161  174 1   
   167  163  164 1   
   168  163  170 1   
   169  163  171 1   
   170  164  165 1   
   171  164  172 1   
   172  164  173 1   
   173  165  166 1   
   174  165  167 1   
   175  174  175 1   
   176  174  179 1   
   177  175  176 1   
   178  175  177 1   
   179  175  178 1   
   180  181  183 1   
   181  181  185 1   
   182  182  184 1   
   183  182  186 1   
   184  187  188 1   
   185  187  189 1   
@<TRIPOS>SUBSTRUCTURE
     1 MOL         1 TEMP              0 ****  ****    0 ROOT
