@<TRIPOS>MOLECULE
MOL
  179   176     1     0     0
SMALL
resp


@<TRIPOS>ATOM
      1 C1          1.2010    4.2930    3.8720 c3        1 MOL     -0.437737
      2 C2          0.4140    3.7930    2.6900 c         1 MOL      0.412316
      3 O1          0.8800    3.8590    1.5290 o         1 MOL     -0.486565
      4 H1          2.2120    3.8890    3.8310 hc        1 MOL      0.125784
      5 H2          1.2440    5.3820    3.8470 hc        1 MOL      0.125784
      6 H3          0.7190    3.9690    4.7940 hc        1 MOL      0.125784
      7 N1         -0.7010    3.0820    2.9870 n         1 MOL     -0.341400
      8 C3         -1.6370    2.5430    2.0330 c3        1 MOL     -0.005039
      9 C4         -2.6150    3.6360    1.4060 c         1 MOL      0.476202
     10 O2         -3.8080    3.6990    1.7170 o         1 MOL     -0.493727
     11 C5         -2.4320    1.4080    2.6590 c3        1 MOL     -0.054301
     12 C6         -3.3000    0.6070    1.6430 c         1 MOL      0.638583
     13 O3         -4.1460   -0.2050    2.0530 o         1 MOL     -0.658367
     14 O4         -2.9680    0.8230    0.4210 o         1 MOL     -0.658367
     15 H4         -0.9470    3.0360    3.9650 hn        1 MOL      0.282747
     16 H5         -1.0450    2.0710    1.2510 h1        1 MOL     -0.028673
     17 H6         -3.1150    1.7280    3.4490 hc        1 MOL      0.016075
     18 H7         -1.7580    0.7290    3.1840 hc        1 MOL      0.016075
     19 N2         -2.0380    4.4970    0.5930 n         1 MOL     -0.373193
     20 C7         -2.6870    5.6670   -0.0080 c3        1 MOL     -0.066202
     21 C8         -3.8780    5.1660   -0.9500 c         1 MOL      0.503947
     22 O5         -4.9800    5.6710   -0.7740 o         1 MOL     -0.489638
     23 C9         -1.6440    6.5970   -0.7210 c3        1 MOL     -0.151446
     24 C10        -0.7340    7.1820    0.3430 c3        1 MOL      0.185521
     25 C11         0.0780    8.3210   -0.3850 c3        1 MOL     -0.061933
     26 C12         1.1560    8.9830    0.5170 c3        1 MOL      0.007357
     27 N3          2.2180    8.0200    0.8650 n4        1 MOL     -0.306438
     28 H8         -1.0270    4.4500    0.5840 hn        1 MOL      0.340630
     29 H9         -3.1970    6.2130    0.7920 h1        1 MOL      0.108707
     30 H10        -2.1560    7.4450   -1.1880 hc        1 MOL      0.063749
     31 H11        -0.9740    6.1110   -1.4220 hc        1 MOL      0.063749
     32 H12        -0.0240    6.4110    0.6510 hc        1 MOL     -0.040336
     33 H13        -1.2740    7.6140    1.1930 hc        1 MOL     -0.040336
     34 H14        -0.5970    9.1380   -0.6420 hc        1 MOL      0.057052
     35 H15         0.5340    8.0240   -1.3380 hc        1 MOL      0.057052
     36 H16         0.8390    9.3950    1.4720 hx        1 MOL      0.077193
     37 H17         1.6220    9.8490    0.0390 hx        1 MOL      0.077193
     38 H18         3.1070    8.4730    1.0310 hn        1 MOL      0.318287
     39 H19         1.9820    7.6790    1.7860 hn        1 MOL      0.318287
     40 H20         2.4300    7.2810    0.2070 hn        1 MOL      0.318287
     41 N4         -3.6050    4.1880   -1.8500 n         1 MOL     -0.396923
     42 C13        -4.6280    3.5580   -2.7480 c3        1 MOL     -0.021406
     43 C14        -5.8070    2.9530   -1.9040 c         1 MOL      0.406620
     44 O6         -6.9740    3.3340   -2.1050 o         1 MOL     -0.525835
     45 C15        -3.9430    2.5850   -3.6750 c3        1 MOL     -0.267080
     46 C16        -3.0880    1.5720   -2.9610 c         1 MOL      0.746965
     47 O7         -3.6650    0.5240   -2.5840 o         1 MOL     -0.709506
     48 O8         -1.8850    1.7560   -2.7630 o         1 MOL     -0.709506
     49 H21        -2.7070    3.7470   -1.8330 hn        1 MOL      0.242318
     50 H22        -5.0060    4.3980   -3.3170 h1        1 MOL      0.112375
     51 H23        -3.3800    2.9810   -4.5170 hc        1 MOL      0.083417
     52 H24        -4.7620    2.1460   -4.2500 hc        1 MOL      0.083417
     53 N5         -5.4630    2.1720   -0.8410 n         1 MOL      0.039518
     54 C17        -6.4480    1.7860    0.2000 c3        1 MOL     -0.214411
     55 C18        -6.7970    0.2190    0.0430 c         1 MOL      0.390207
     56 O9         -7.9470   -0.1630    0.4740 o         1 MOL     -0.540725
     57 H25        -4.4960    1.9150   -0.6980 hn        1 MOL      0.087293
     58 H26        -7.2910    2.4720    0.1820 h1        1 MOL      0.141762
     59 H27        -5.9770    1.7250    1.1850 h1        1 MOL      0.141762
     60 N6         -5.9400   -0.6820   -0.5570 n         1 MOL     -0.081790
     61 C19        -6.2520   -2.1350   -0.5620 c3        1 MOL     -0.098402
     62 C20        -6.1150   -2.9590    0.7010 c         1 MOL      0.451416
     63 O10        -6.3500   -4.1890    0.6940 o         1 MOL     -0.548123
     64 C21        -5.5910   -2.8050   -1.7810 c3        1 MOL     -0.052274
     65 C22        -4.1380   -2.6850   -1.8080 c         1 MOL      0.624656
     66 N7         -3.5060   -2.9670   -2.9320 n         1 MOL     -0.829957
     67 O11        -3.4010   -2.2710   -0.8960 o         1 MOL     -0.400842
     68 H28        -5.2270   -0.3580   -1.1970 hn        1 MOL      0.009807
     69 H29        -7.2990   -2.3180   -0.7740 h1        1 MOL      0.096250
     70 H30        -6.0130   -2.3670   -2.6900 hc        1 MOL      0.054008
     71 H31        -5.9100   -3.8380   -1.8340 hc        1 MOL      0.054008
     72 H32        -3.9930   -3.1450   -3.7980 hn        1 MOL      0.333840
     73 H33        -2.5210   -2.7740   -3.0700 hn        1 MOL      0.333840
     74 N8         -5.6970   -2.3490    1.7990 n         1 MOL     -0.223735
     75 C23        -5.4980   -2.9080    3.0980 c3        1 MOL     -0.296948
     76 C24        -4.0760   -3.4610    3.2830 c         1 MOL      0.562143
     77 O12        -3.8600   -4.1220    4.3000 o         1 MOL     -0.580627
     78 H34        -5.3790   -1.4010    1.6950 hn        1 MOL      0.321924
     79 H35        -6.1700   -3.7560    3.2030 h1        1 MOL      0.148175
     80 H36        -5.6480   -2.1550    3.8750 h1        1 MOL      0.148175
     81 N9         -3.1380   -3.2750    2.3490 n         1 MOL     -0.198555
     82 C25        -1.7230   -3.7480    2.4770 c3        1 MOL     -0.074151
     83 C26        -0.7420   -2.8830    1.6890 c         1 MOL      0.693873
     84 O13        -1.0720   -2.2870    0.6390 o         1 MOL     -0.696710
     85 C27        -1.5120   -5.2140    2.1110 c3        1 MOL     -0.054260
     86 C28        -1.6390   -5.4140    0.5970 ca        1 MOL      0.081685
     87 C29        -0.5010   -5.5790   -0.2740 ca        1 MOL     -0.194581
     88 C30        -2.9040   -5.5680    0.0710 ca        1 MOL     -0.194581
     89 C31        -0.7720   -5.9790   -1.6070 ca        1 MOL     -0.220433
     90 C32        -3.1410   -5.9840   -1.2690 ca        1 MOL     -0.220433
     91 C33        -2.0580   -6.1180   -2.1530 ca        1 MOL      0.363432
     92 O14        -2.2170   -6.5970   -3.4020 oh        1 MOL     -0.584749
     93 H37        -3.4440   -2.6860    1.5970 hn        1 MOL      0.121406
     94 H38        -1.4320   -3.7180    3.5230 h1        1 MOL      0.071480
     95 H39        -2.2230   -5.9130    2.5660 hc        1 MOL      0.063532
     96 H40        -0.5260   -5.5220    2.4390 hc        1 MOL      0.063532
     97 H41         0.5280   -5.3970   -0.0250 ha        1 MOL      0.157015
     98 H42        -3.7980   -5.4160    0.6580 ha        1 MOL      0.157015
     99 H43         0.0600   -6.1470   -2.2790 ha        1 MOL      0.109469
    100 H44        -4.1360   -6.1120   -1.6660 ha        1 MOL      0.109469
    101 H45        -3.1300   -6.7550   -3.6610 ho        1 MOL      0.429705
    102 N10         0.4880   -2.8400    2.2070 n         1 MOL     -0.638644
    103 C34         1.6880   -2.1980    1.6390 c3        1 MOL      0.299806
    104 C35         2.7580   -3.2380    1.2480 c         1 MOL      0.303906
    105 O15         3.1320   -4.2310    1.9550 o         1 MOL     -0.525324
    106 C36         2.2710   -1.0940    2.6160 c3        1 MOL     -0.076507
    107 C37         2.4540   -1.6150    4.0520 c3        1 MOL      0.240371
    108 C38         1.4520    0.2020    2.5570 c3        1 MOL     -0.474963
    109 C39         3.0720   -0.6610    5.0200 c3        1 MOL     -0.140892
    110 H46         0.5610   -3.1730    3.1520 hn        1 MOL      0.313565
    111 H47         1.3490   -1.7210    0.7260 h1        1 MOL      0.111348
    112 H48         3.2420   -0.7840    2.2420 hc        1 MOL     -0.018970
    113 H49         2.9750   -2.5730    4.0890 hc        1 MOL     -0.040171
    114 H50         1.4940   -1.9200    4.4540 hc        1 MOL     -0.040171
    115 H51         0.5730    0.1600    3.2020 hc        1 MOL      0.159895
    116 H52         2.0510    1.0340    2.9040 hc        1 MOL      0.159895
    117 H53         1.1520    0.3570    1.5220 hc        1 MOL      0.159895
    118 H54         4.1160   -0.4330    4.8450 hc        1 MOL      0.025657
    119 H55         2.4580    0.2210    5.1710 hc        1 MOL      0.025657
    120 H56         3.0950   -1.1280    6.0060 hc        1 MOL      0.025657
    121 N11         3.4530   -2.8400    0.2250 n         1 MOL     -0.191880
    122 C40         4.8490   -3.2120   -0.1740 c3        1 MOL      0.061934
    123 C41         5.9130   -2.3500    0.3840 c         1 MOL      0.580962
    124 O16         5.7200   -1.2150    0.8720 o         1 MOL     -0.475257
    125 C42         4.9570   -3.5210   -1.6680 c3        1 MOL     -0.127920
    126 O17         4.6760   -2.2970   -2.3930 oh        1 MOL     -0.398717
    127 H57         2.9630   -2.2000   -0.3800 hn        1 MOL      0.138444
    128 H58         5.0900   -4.1550    0.3060 h1        1 MOL      0.058634
    129 H59         4.3030   -4.3400   -1.9640 h1        1 MOL      0.086676
    130 H60         5.9790   -3.7770   -1.9420 h1        1 MOL      0.086676
    131 H61         4.4910   -2.5490   -3.2940 ho        1 MOL      0.359490
    132 N12         7.1670   -2.8570    0.3020 n         1 MOL     -0.499016
    133 C43         8.3750   -2.0400    0.4510 c3        1 MOL      0.104201
    134 C44         8.5640   -0.8120   -0.4720 c         1 MOL      0.480855
    135 O18         8.8840    0.2220    0.0580 o         1 MOL     -0.501279
    136 C45         9.5380   -2.9660    0.1280 c3        1 MOL     -0.264221
    137 H62         7.2230   -3.8520    0.1730 hn        1 MOL      0.291222
    138 H63         8.4110   -1.7240    1.4930 h1        1 MOL      0.093084
    139 H64         9.4990   -3.3540   -0.8840 hc        1 MOL      0.078816
    140 H65        10.4840   -2.4590    0.3120 hc        1 MOL      0.078816
    141 H66         9.5860   -3.8240    0.7950 hc        1 MOL      0.078816
    142 N13         8.0930   -0.9190   -1.6930 n         1 MOL     -0.339172
    143 C46         8.0490    0.2100   -2.5510 c3        1 MOL      0.049824
    144 C47         7.0810    1.4070   -2.1410 c         1 MOL      0.343449
    145 O19         7.3320    2.6140   -2.2710 o         1 MOL     -0.483195
    146 C48         7.8000   -0.3850   -3.9890 c3        1 MOL     -0.212641
    147 H67         7.9570   -1.8090   -2.1330 hn        1 MOL      0.284565
    148 H68         9.0670    0.5960   -2.6020 h1        1 MOL      0.086812
    149 H69         7.0390   -1.1630   -3.9700 hc        1 MOL      0.061785
    150 H70         7.4870    0.3730   -4.7070 hc        1 MOL      0.061785
    151 H71         8.7040   -0.8290   -4.4010 hc        1 MOL      0.061785
    152 N14         5.9360    0.9610   -1.5650 n         1 MOL     -0.098341
    153 C49         4.9930    1.8700   -0.8950 c3        1 MOL     -0.110494
    154 C50         5.6050    2.4200    0.4480 c         1 MOL      0.450864
    155 O20         5.2540    3.5830    0.7400 o         1 MOL     -0.583654
    156 C51         3.6680    1.1880   -0.5980 c3        1 MOL      0.097374
    157 C52         2.7610    1.1040   -1.7720 c3        1 MOL      0.004593
    158 C53         1.4170    0.5960   -1.2140 c         1 MOL      0.669741
    159 O21         0.5300    1.3640   -0.7970 o         1 MOL     -0.737793
    160 O22         1.1560   -0.6080   -1.3100 o         1 MOL     -0.737793
    161 H72         5.8280   -0.0320   -1.4290 hn        1 MOL      0.046098
    162 H73         4.8200    2.8130   -1.4210 h1        1 MOL      0.120070
    163 H74         3.1950    1.8050    0.1660 hc        1 MOL      0.027624
    164 H75         3.8710    0.1870   -0.2260 hc        1 MOL      0.027624
    165 H76         3.2150    0.3550   -2.4150 hc        1 MOL     -0.037182
    166 H77         2.7480    2.0610   -2.2870 hc        1 MOL     -0.037182
    167 N15         6.4750    1.7370    1.1880 n         1 MOL     -0.128046
    168 C54         7.1070    2.3340    2.3970 c3        1 MOL     -0.182948
    169 H78         8.1640    2.0680    2.4240 h1        1 MOL      0.085213
    170 H79         7.0060    3.4190    2.3630 h1        1 MOL      0.085213
    171 H80         6.6140    1.9510    3.2910 h1        1 MOL      0.085213
    172 H81         6.7420    0.7780    1.0150 hn        1 MOL      0.185026
    173 Ca1        -1.5380   -0.3160   -1.3070 Ca        1 MOL      1.758877
    174 O23        -1.1220   -0.7310   -4.2960 oh        1 MOL     -0.794980
    175 H82        -0.9300   -1.5480   -4.7560 ho        1 MOL      0.393223
    176 H83        -1.2650   -0.0940   -4.9910 ho        1 MOL      0.393223
    177 O24        -0.6950   -2.7690   -2.2260 oh        1 MOL     -0.794980
    178 H84        -0.0890   -2.9400   -2.9500 ho        1 MOL      0.393223
    179 H85        -0.7020   -3.5840   -1.7170 ho        1 MOL      0.393223
@<TRIPOS>BOND
     1    1    2 1   
     2    1    4 1   
     3    1    5 1   
     4    1    6 1   
     5    2    3 2   
     6    2    7 1   
     7    7    8 1   
     8    7   15 1   
     9    8    9 1   
    10    8   11 1   
    11    8   16 1   
    12    9   10 2   
    13    9   19 1   
    14   11   12 1   
    15   11   17 1   
    16   11   18 1   
    17   12   13 1   
    18   12   14 1   
    19   19   20 1   
    20   19   28 1   
    21   20   21 1   
    22   20   23 1   
    23   20   29 1   
    24   21   22 2   
    25   21   41 1   
    26   23   24 1   
    27   23   30 1   
    28   23   31 1   
    29   24   25 1   
    30   24   32 1   
    31   24   33 1   
    32   25   26 1   
    33   25   34 1   
    34   25   35 1   
    35   26   27 1   
    36   26   36 1   
    37   26   37 1   
    38   27   38 1   
    39   27   39 1   
    40   27   40 1   
    41   41   42 1   
    42   41   49 1   
    43   42   43 1   
    44   42   45 1   
    45   42   50 1   
    46   43   44 2   
    47   43   53 1   
    48   45   46 1   
    49   45   51 1   
    50   45   52 1   
    51   46   47 1   
    52   46   48 1   
    53   53   54 1   
    54   53   57 1   
    55   54   55 1   
    56   54   58 1   
    57   54   59 1   
    58   55   56 2   
    59   55   60 1   
    60   60   61 1   
    61   60   68 1   
    62   61   62 1   
    63   61   64 1   
    64   61   69 1   
    65   62   63 2   
    66   62   74 1   
    67   64   65 1   
    68   64   70 1   
    69   64   71 1   
    70   65   66 1   
    71   65   67 2   
    72   66   72 1   
    73   66   73 1   
    74   74   75 1   
    75   74   78 1   
    76   75   76 1   
    77   75   79 1   
    78   75   80 1   
    79   76   77 2   
    80   76   81 1   
    81   81   82 1   
    82   81   93 1   
    83   82   83 1   
    84   82   85 1   
    85   82   94 1   
    86   83   84 2   
    87   83  102 1   
    88   85   86 1   
    89   85   95 1   
    90   85   96 1   
    91   86   87 ar  
    92   86   88 ar  
    93   87   89 ar  
    94   87   97 1   
    95   88   90 ar  
    96   88   98 1   
    97   89   91 ar  
    98   89   99 1   
    99   90   91 ar  
   100   90  100 1   
   101   91   92 1   
   102   92  101 1   
   103  102  103 1   
   104  102  110 1   
   105  103  104 1   
   106  103  106 1   
   107  103  111 1   
   108  104  105 2   
   109  104  121 1   
   110  106  107 1   
   111  106  108 1   
   112  106  112 1   
   113  107  109 1   
   114  107  113 1   
   115  107  114 1   
   116  108  115 1   
   117  108  116 1   
   118  108  117 1   
   119  109  118 1   
   120  109  119 1   
   121  109  120 1   
   122  121  122 1   
   123  121  127 1   
   124  122  123 1   
   125  122  125 1   
   126  122  128 1   
   127  123  124 2   
   128  123  132 1   
   129  125  126 1   
   130  125  129 1   
   131  125  130 1   
   132  126  131 1   
   133  132  133 1   
   134  132  137 1   
   135  133  134 1   
   136  133  136 1   
   137  133  138 1   
   138  134  135 2   
   139  134  142 1   
   140  136  139 1   
   141  136  140 1   
   142  136  141 1   
   143  142  143 1   
   144  142  147 1   
   145  143  144 1   
   146  143  146 1   
   147  143  148 1   
   148  144  145 2   
   149  144  152 1   
   150  146  149 1   
   151  146  150 1   
   152  146  151 1   
   153  152  153 1   
   154  152  161 1   
   155  153  154 1   
   156  153  156 1   
   157  153  162 1   
   158  154  155 2   
   159  154  167 1   
   160  156  157 1   
   161  156  163 1   
   162  156  164 1   
   163  157  158 1   
   164  157  165 1   
   165  157  166 1   
   166  158  159 1   
   167  158  160 1   
   168  167  168 1   
   169  167  172 1   
   170  168  169 1   
   171  168  170 1   
   172  168  171 1   
   173  174  175 1   
   174  174  176 1   
   175  177  178 1   
   176  177  179 1   
@<TRIPOS>SUBSTRUCTURE
     1 MOL         1 TEMP              0 ****  ****    0 ROOT
