@<TRIPOS>MOLECULE
MOL
  189   185     1     0     0
SMALL
resp


@<TRIPOS>ATOM
      1 C1         -0.8540    3.7470    5.5340 c3        1 MOL     -0.274485
      2 C2         -0.9870    3.1720    4.1370 c         1 MOL      0.662911
      3 O1         -0.2770    3.5580    3.2320 o         1 MOL     -0.594011
      4 H1         -1.8440    3.8570    5.9770 hc        1 MOL      0.066275
      5 H2         -0.2550    3.0740    6.1480 hc        1 MOL      0.066275
      6 H3         -0.3700    4.7210    5.4820 hc        1 MOL      0.066275
      7 N1         -2.0160    2.3700    3.9400 n         1 MOL     -0.496877
      8 C3         -2.4810    1.8400    2.6140 c3        1 MOL      0.288822
      9 C4         -3.0920    2.9440    1.7530 c         1 MOL      0.266647
     10 O2         -4.2970    3.3290    1.9420 o         1 MOL     -0.504223
     11 C5         -3.4230    0.7050    2.7340 c3        1 MOL     -0.302671
     12 C6         -3.8730    0.0370    1.4230 c         1 MOL      0.825568
     13 O3         -3.3480    0.4150    0.3530 o         1 MOL     -0.677369
     14 O4         -4.8370   -0.7350    1.3840 o         1 MOL     -0.677369
     15 H4         -2.5720    2.0830    4.7340 hn        1 MOL      0.299349
     16 H5         -1.6370    1.4810    2.0370 h1        1 MOL     -0.068723
     17 H6         -4.2790    0.9350    3.3680 hc        1 MOL      0.065493
     18 H7         -2.8900   -0.1580    3.1460 hc        1 MOL      0.065493
     19 N2         -2.3000    3.6510    0.9270 n         1 MOL     -0.088093
     20 C7         -2.8490    4.8560    0.2460 c3        1 MOL      0.047724
     21 C8         -3.9150    4.5580   -0.7870 c         1 MOL      0.325016
     22 O5         -4.7630    5.4110   -1.0700 o         1 MOL     -0.521579
     23 C9         -1.6910    5.6550   -0.4070 c3        1 MOL     -0.103596
     24 C10        -0.8920    6.3340    0.6770 c3        1 MOL      0.048605
     25 C11        -1.6340    7.1860    1.6790 c3        1 MOL     -0.110933
     26 C12        -0.6500    8.2120    2.4180 c3        1 MOL     -0.033789
     27 N3         -0.1030    9.3260    1.6020 n4        1 MOL     -0.343404
     28 H8         -1.3480    3.3740    0.7380 hn        1 MOL      0.228710
     29 H9         -3.3650    5.4960    0.9480 h1        1 MOL      0.063334
     30 H10        -2.0110    6.4840   -1.0270 hc        1 MOL      0.043330
     31 H11        -1.1320    4.9340   -1.0080 hc        1 MOL      0.043330
     32 H12        -0.1230    6.9270    0.1680 hc        1 MOL     -0.009716
     33 H13        -0.3280    5.6080    1.2600 hc        1 MOL     -0.009716
     34 H14        -2.0580    6.5280    2.4310 hc        1 MOL      0.072583
     35 H15        -2.4630    7.7190    1.2050 hc        1 MOL      0.072583
     36 H16         0.1590    7.6080    2.8140 hx        1 MOL      0.114653
     37 H17        -1.1410    8.7160    3.2480 hx        1 MOL      0.114653
     38 H18         0.2790    9.0730    0.6980 hn        1 MOL      0.320322
     39 H19        -0.8480    9.9510    1.3750 hn        1 MOL      0.320322
     40 H20         0.5070    9.9150    2.1580 hn        1 MOL      0.320322
     41 N4         -3.8640    3.3100   -1.3510 n         1 MOL     -0.048677
     42 C13        -4.7560    2.7880   -2.4300 c3        1 MOL     -0.126241
     43 C14        -6.0160    2.0800   -1.9840 c         1 MOL      0.419252
     44 O6         -6.9790    1.9980   -2.7660 o         1 MOL     -0.511541
     45 C15        -4.0750    1.8830   -3.5170 c3        1 MOL     -0.097283
     46 C16        -2.5350    1.9730   -3.4010 c         1 MOL      0.695863
     47 O7         -1.9240    1.2630   -2.5900 o         1 MOL     -0.713132
     48 O8         -1.8740    2.6970   -4.1560 o         1 MOL     -0.713132
     49 H21        -3.0980    2.6980   -1.1210 hn        1 MOL      0.087321
     50 H22        -5.1030    3.6340   -3.0190 h1        1 MOL      0.110844
     51 H23        -4.3320    2.2620   -4.5070 hc        1 MOL      0.035153
     52 H24        -4.4180    0.8540   -3.4180 hc        1 MOL      0.035153
     53 N5         -6.0730    1.6230   -0.7380 n         1 MOL     -0.140501
     54 C17        -7.3440    1.1200   -0.1680 c3        1 MOL     -0.263315
     55 C18        -7.6310   -0.3070   -0.6810 c         1 MOL      0.477847
     56 O9         -8.7730   -0.5300   -1.0120 o         1 MOL     -0.547403
     57 H25        -5.2310    1.7330   -0.1880 hn        1 MOL      0.182143
     58 H26        -8.2260    1.7010   -0.4400 h1        1 MOL      0.131094
     59 H27        -7.3280    1.0270    0.9150 h1        1 MOL      0.131094
     60 N6         -6.5740   -1.0480   -1.0100 n         1 MOL     -0.093714
     61 C19        -6.6840   -2.4250   -1.6000 c3        1 MOL     -0.121590
     62 C20        -6.8700   -3.5780   -0.5360 c         1 MOL      0.416629
     63 O10        -7.5000   -4.5640   -0.7780 o         1 MOL     -0.507037
     64 C21        -5.5630   -2.7240   -2.6340 c3        1 MOL     -0.068267
     65 C22        -4.1500   -2.2460   -2.2310 c         1 MOL      0.663730
     66 O11        -3.4820   -1.5880   -3.0320 o         1 MOL     -0.702999
     67 O12        -3.5780   -2.6840   -1.2430 o         1 MOL     -0.702999
     68 H28        -5.7100   -0.7040   -0.6060 hn        1 MOL      0.071850
     69 H29        -7.5790   -2.4990   -2.2150 h1        1 MOL      0.111404
     70 H30        -5.8380   -2.2860   -3.5950 hc        1 MOL      0.050077
     71 H31        -5.5550   -3.8050   -2.7950 hc        1 MOL      0.050077
     72 N7         -6.2420   -3.3520    0.6400 n         1 MOL     -0.164000
     73 C23        -6.0070   -4.2860    1.7190 c3        1 MOL     -0.184847
     74 C24        -4.6190   -4.8360    1.8650 c         1 MOL      0.648259
     75 O13        -4.3980   -5.5680    2.7800 o         1 MOL     -0.606121
     76 H32        -5.7540   -2.4820    0.7950 hn        1 MOL      0.179494
     77 H33        -6.6610   -5.1470    1.6160 h1        1 MOL      0.091104
     78 H34        -6.2390   -3.6850    2.5910 h1        1 MOL      0.091104
     79 N8         -3.6340   -4.4110    1.0290 n         1 MOL     -0.175184
     80 C25        -2.1940   -4.7540    1.1460 c3        1 MOL     -0.431300
     81 C26        -1.2820   -3.5530    1.1990 c         1 MOL      0.776165
     82 O14        -1.5760   -2.4050    0.8270 o         1 MOL     -0.659313
     83 C27        -1.8440   -5.6810    0.0030 c3        1 MOL      0.574857
     84 C28        -2.4860   -7.0540    0.2110 c3        1 MOL     -0.282036
     85 O15        -2.2780   -5.0490   -1.1750 oh        1 MOL     -0.720829
     86 H35        -3.9520   -3.7920    0.2990 hn        1 MOL      0.131358
     87 H36        -2.0480   -5.2670    2.0920 h1        1 MOL      0.146700
     88 H37        -0.7850   -5.9230   -0.0770 h1        1 MOL     -0.042906
     89 H38        -2.5650   -4.1460   -0.9950 ho        1 MOL      0.489348
     90 H39        -2.0830   -7.6790   -0.5870 hc        1 MOL      0.070240
     91 H40        -2.0300   -7.5220    1.0930 hc        1 MOL      0.070240
     92 H41        -3.5680   -7.1100    0.1790 hc        1 MOL      0.070240
     93 N9         -0.0380   -3.8280    1.7110 n         1 MOL     -0.551772
     94 C29         1.1160   -2.9360    1.7980 c3        1 MOL      0.196385
     95 C30         2.1880   -3.4900    0.8340 c         1 MOL      0.195332
     96 O16         2.5060   -4.6710    0.8760 o         1 MOL     -0.527495
     97 C31         1.6130   -2.8240    3.3210 c3        1 MOL      0.142810
     98 C32         0.6790   -2.0190    4.1710 c3        1 MOL     -0.182801
     99 C33         3.0380   -2.4220    3.5790 c3        1 MOL     -0.142807
    100 C34         0.4310   -0.5450    3.8070 c3        1 MOL      0.010017
    101 H42         0.0970   -4.7350    2.1440 hn        1 MOL      0.284391
    102 H43         0.9080   -1.9620    1.3610 h1        1 MOL     -0.022952
    103 H44         1.5160   -3.8070    3.7870 hc        1 MOL      0.002444
    104 H45         0.9760   -2.1180    5.2120 hc        1 MOL      0.052728
    105 H46        -0.2900   -2.5180    4.0820 hc        1 MOL      0.052728
    106 H47         3.7410   -2.8780    2.8940 hc        1 MOL      0.020497
    107 H48         3.2090   -1.3560    3.4170 hc        1 MOL      0.020497
    108 H49         3.3130   -2.6230    4.6170 hc        1 MOL      0.020497
    109 H50        -0.0200   -0.4650    2.8230 hc        1 MOL      0.002620
    110 H51        -0.3760   -0.1590    4.4440 hc        1 MOL      0.002620
    111 H52         1.2430    0.1780    3.8600 hc        1 MOL      0.002620
    112 N10         2.8230   -2.6360    0.1110 n         1 MOL      0.079432
    113 C35         3.9210   -3.0370   -0.8070 c3        1 MOL      0.092651
    114 C36         5.2710   -2.6420   -0.2650 c         1 MOL      0.083635
    115 O17         5.2980   -2.0060    0.7990 o         1 MOL     -0.124077
    116 C37         3.8390   -2.3380   -2.1920 c3        1 MOL      0.044969
    117 C38         2.6090   -2.7720   -2.9610 c3        1 MOL     -0.442620
    118 O18         3.7980   -0.9340   -2.1320 oh        1 MOL     -0.493704
    119 H53         2.3790   -1.7350   -0.0240 hn        1 MOL      0.161814
    120 H54         3.9640   -4.1090   -1.0140 h1        1 MOL      0.078532
    121 H55         4.7320   -2.5940   -2.7540 h1        1 MOL      0.076662
    122 H56         2.9080   -0.7200   -2.4150 ho        1 MOL      0.365740
    123 H57         2.6160   -3.8530   -3.1230 hc        1 MOL      0.131640
    124 H58         1.6620   -2.5770   -2.4540 hc        1 MOL      0.131640
    125 H59         2.5430   -2.2900   -3.9370 hc        1 MOL      0.131640
    126 N11         6.4520   -2.9380   -0.9250 n         1 MOL     -0.182623
    127 C39         7.7420   -2.4390   -0.4660 c3        1 MOL     -0.164337
    128 C40         7.8640   -0.8960   -0.4550 c         1 MOL      0.401430
    129 O19         8.4740   -0.3770    0.4840 o         1 MOL     -0.462637
    130 C41         8.8910   -2.8500   -1.4250 c3        1 MOL      0.162688
    131 C42         9.2400   -4.3990   -1.2270 c3        1 MOL     -0.200712
    132 O20         8.5170   -2.7350   -2.7890 oh        1 MOL     -0.607427
    133 H60         6.4650   -3.5000   -1.7680 hn        1 MOL      0.273811
    134 H61         7.8710   -2.7740    0.5620 h1        1 MOL      0.145620
    135 H62         9.8080   -2.3480   -1.1350 h1        1 MOL      0.092544
    136 H63         9.3220   -2.7550   -3.3170 ho        1 MOL      0.420613
    137 H64         8.3270   -4.9550   -1.4340 hc        1 MOL      0.059692
    138 H65        10.0940   -4.7810   -1.7760 hc        1 MOL      0.059692
    139 H66         9.4500   -4.6580   -0.1870 hc        1 MOL      0.059692
    140 N12         7.3140   -0.1630   -1.4180 n         1 MOL     -0.335739
    141 C43         7.1740    1.2580   -1.2670 c3        1 MOL      0.038370
    142 C44         6.5000    1.7000    0.0800 c         1 MOL      0.222503
    143 O21         6.9580    2.6200    0.7810 o         1 MOL     -0.484492
    144 C45         6.3910    1.8330   -2.4960 c3        1 MOL     -0.128945
    145 C46         6.1270    3.3800   -2.4690 c3        1 MOL     -0.143441
    146 C47         5.0990    3.8910   -3.4990 c3        1 MOL      0.108779
    147 C48         4.8940    5.3390   -3.3030 c3        1 MOL     -0.129678
    148 N13         3.8050    5.7550   -4.2040 n4        1 MOL     -0.175038
    149 H67         6.8550   -0.5850   -2.2210 hn        1 MOL      0.259091
    150 H68         8.1670    1.7120   -1.2420 h1        1 MOL      0.099750
    151 H69         5.4200    1.3510   -2.4230 hc        1 MOL      0.060623
    152 H70         6.9410    1.5880   -3.4100 hc        1 MOL      0.060623
    153 H71         7.0790    3.8900   -2.6300 hc        1 MOL      0.070605
    154 H72         5.7390    3.7760   -1.5290 hc        1 MOL      0.070605
    155 H73         4.2090    3.3180   -3.2120 hc        1 MOL      0.012662
    156 H74         5.3130    3.6930   -4.5430 hc        1 MOL      0.012662
    157 H75         5.7810    5.7750   -3.7500 hx        1 MOL      0.116133
    158 H76         4.7000    5.5730   -2.2550 hx        1 MOL      0.116133
    159 H77         3.0580    5.0810   -4.1210 hn        1 MOL      0.283771
    160 H78         3.4170    6.6570   -3.9750 hn        1 MOL      0.283771
    161 H79         4.0250    5.8210   -5.1940 hn        1 MOL      0.283771
    162 N14         5.3860    1.0830    0.4080 n         1 MOL      0.131255
    163 C49         4.5000    1.5230    1.4820 c3        1 MOL     -0.418144
    164 C50         5.0830    1.0290    2.7650 c         1 MOL      0.541834
    165 O22         5.0680    1.7320    3.7810 o         1 MOL     -0.573243
    166 C51         3.0340    0.9950    1.2920 c3        1 MOL      0.175667
    167 C52         2.3870    1.5030    0.0430 c3        1 MOL     -0.314619
    168 C53         1.0250    0.7610   -0.2630 c         1 MOL      0.689365
    169 O23         1.0600   -0.4440   -0.6180 o         1 MOL     -0.658587
    170 O24        -0.0820    1.2940   -0.1200 o         1 MOL     -0.658587
    171 H80         5.1100    0.2730   -0.1260 hn        1 MOL      0.140576
    172 H81         4.4700    2.6190    1.5340 h1        1 MOL      0.157906
    173 H82         2.4380    1.2850    2.1480 hc        1 MOL      0.055017
    174 H83         2.9130   -0.0910    1.2100 hc        1 MOL      0.055017
    175 H84         2.9570    1.3160   -0.8670 hc        1 MOL      0.054717
    176 H85         2.0600    2.5350    0.2180 hc        1 MOL      0.054717
    177 N15         5.6350   -0.2200    2.8570 n         1 MOL      0.015288
    178 C54         6.3680   -0.7590    4.0290 c3        1 MOL     -0.316225
    179 H86         7.4380   -0.6120    3.8870 h1        1 MOL      0.112265
    180 H87         6.0460   -0.2360    4.9300 h1        1 MOL      0.112265
    181 H88         6.1590   -1.8240    4.1320 h1        1 MOL      0.112265
    182 H89         5.5070   -0.8900    2.1080 hn        1 MOL     -0.071548
    183 Ca1        -1.5990   -0.7260   -1.0840 Ca        1 MOL      1.674329
    184 O25        -0.6140   -3.1150   -1.8380 oh        1 MOL     -0.856762
    185 H90        -0.0960   -3.2880   -2.6220 ho        1 MOL      0.402202
    186 H91        -1.1700   -3.8880   -1.7420 ho        1 MOL      0.402202
    187 O26        -0.4930   -0.6720   -3.6570 oh        1 MOL     -0.856762
    188 H92        -0.9440    0.1740   -3.6730 ho        1 MOL      0.402202
    189 H93        -0.8150   -1.1220   -4.4370 ho        1 MOL      0.402202
@<TRIPOS>BOND
     1    1    2 1   
     2    1    4 1   
     3    1    5 1   
     4    1    6 1   
     5    2    3 2   
     6    2    7 1   
     7    7    8 1   
     8    7   15 1   
     9    8    9 1   
    10    8   11 1   
    11    8   16 1   
    12    9   10 2   
    13    9   19 1   
    14   11   12 1   
    15   11   17 1   
    16   11   18 1   
    17   12   13 1   
    18   12   14 1   
    19   19   20 1   
    20   19   28 1   
    21   20   21 1   
    22   20   23 1   
    23   20   29 1   
    24   21   22 2   
    25   21   41 1   
    26   23   24 1   
    27   23   30 1   
    28   23   31 1   
    29   24   25 1   
    30   24   32 1   
    31   24   33 1   
    32   25   26 1   
    33   25   34 1   
    34   25   35 1   
    35   26   27 1   
    36   26   36 1   
    37   26   37 1   
    38   27   38 1   
    39   27   39 1   
    40   27   40 1   
    41   41   42 1   
    42   41   49 1   
    43   42   43 1   
    44   42   45 1   
    45   42   50 1   
    46   43   44 2   
    47   43   53 1   
    48   45   46 1   
    49   45   51 1   
    50   45   52 1   
    51   46   47 1   
    52   46   48 1   
    53   53   54 1   
    54   53   57 1   
    55   54   55 1   
    56   54   58 1   
    57   54   59 1   
    58   55   56 2   
    59   55   60 1   
    60   60   61 1   
    61   60   68 1   
    62   61   62 1   
    63   61   64 1   
    64   61   69 1   
    65   62   63 2   
    66   62   72 1   
    67   64   65 1   
    68   64   70 1   
    69   64   71 1   
    70   65   66 1   
    71   65   67 1   
    72   72   73 1   
    73   72   76 1   
    74   73   74 1   
    75   73   77 1   
    76   73   78 1   
    77   74   75 2   
    78   74   79 1   
    79   79   80 1   
    80   79   86 1   
    81   80   81 1   
    82   80   83 1   
    83   80   87 1   
    84   81   82 2   
    85   81   93 1   
    86   83   84 1   
    87   83   85 1   
    88   83   88 1   
    89   84   90 1   
    90   84   91 1   
    91   84   92 1   
    92   85   89 1   
    93   93   94 1   
    94   93  101 1   
    95   94   95 1   
    96   94   97 1   
    97   94  102 1   
    98   95   96 2   
    99   95  112 1   
   100   97   98 1   
   101   97   99 1   
   102   97  103 1   
   103   98  100 1   
   104   98  104 1   
   105   98  105 1   
   106   99  106 1   
   107   99  107 1   
   108   99  108 1   
   109  100  109 1   
   110  100  110 1   
   111  100  111 1   
   112  112  113 1   
   113  112  119 1   
   114  113  114 1   
   115  113  116 1   
   116  113  120 1   
   117  114  115 2   
   118  114  126 1   
   119  116  117 1   
   120  116  118 1   
   121  116  121 1   
   122  117  123 1   
   123  117  124 1   
   124  117  125 1   
   125  118  122 1   
   126  126  127 1   
   127  126  133 1   
   128  127  128 1   
   129  127  130 1   
   130  127  134 1   
   131  128  129 2   
   132  128  140 1   
   133  130  131 1   
   134  130  132 1   
   135  130  135 1   
   136  131  137 1   
   137  131  138 1   
   138  131  139 1   
   139  132  136 1   
   140  140  141 1   
   141  140  149 1   
   142  141  142 1   
   143  141  144 1   
   144  141  150 1   
   145  142  143 2   
   146  142  162 1   
   147  144  145 1   
   148  144  151 1   
   149  144  152 1   
   150  145  146 1   
   151  145  153 1   
   152  145  154 1   
   153  146  147 1   
   154  146  155 1   
   155  146  156 1   
   156  147  148 1   
   157  147  157 1   
   158  147  158 1   
   159  148  159 1   
   160  148  160 1   
   161  148  161 1   
   162  162  163 1   
   163  162  171 1   
   164  163  164 1   
   165  163  166 1   
   166  163  172 1   
   167  164  165 2   
   168  164  177 1   
   169  166  167 1   
   170  166  173 1   
   171  166  174 1   
   172  167  168 1   
   173  167  175 1   
   174  167  176 1   
   175  168  169 1   
   176  168  170 1   
   177  177  178 1   
   178  177  182 1   
   179  178  179 1   
   180  178  180 1   
   181  178  181 1   
   182  184  185 1   
   183  184  186 1   
   184  187  188 1   
   185  187  189 1   
@<TRIPOS>SUBSTRUCTURE
     1 MOL         1 TEMP              0 ****  ****    0 ROOT
