@<TRIPOS>MOLECULE
MOL
  179   176     1     0     0
SMALL
resp


@<TRIPOS>ATOM
      1 C1          1.4730    3.8960    4.1420 c3        1 MOL     -0.376972
      2 C2          0.6660    3.4440    2.8430 c         1 MOL      0.718531
      3 O1          1.1840    3.6600    1.7210 o         1 MOL     -0.606315
      4 H1          1.7570    4.9440    4.0460 hc        1 MOL      0.101230
      5 H2          0.8440    3.7700    5.0230 hc        1 MOL      0.101230
      6 H3          2.3690    3.2850    4.2450 hc        1 MOL      0.101230
      7 N1         -0.5550    2.9340    2.9860 n         1 MOL     -0.714954
      8 C3         -1.4560    2.4840    1.8460 c3        1 MOL      0.273175
      9 C4         -2.2480    3.6700    1.3870 c         1 MOL      0.439429
     10 O2         -3.4400    3.8010    1.6490 o         1 MOL     -0.478730
     11 C5         -2.3140    1.3070    2.3500 c3        1 MOL      0.073487
     12 C6         -3.2770    0.7140    1.2480 c         1 MOL      0.346568
     13 O3         -2.9480    0.7730    0.0140 o         1 MOL     -0.562520
     14 O4         -4.4040    0.2490    1.6500 o         1 MOL     -0.562520
     15 H4         -0.8450    2.7530    3.9370 hn        1 MOL      0.352263
     16 H5         -0.9340    2.2930    0.9080 h1        1 MOL      0.019271
     17 H6         -2.8360    1.6040    3.2590 hc        1 MOL     -0.010433
     18 H7         -1.5560    0.5640    2.5790 hc        1 MOL     -0.010433
     19 N2         -1.6160    4.7320    0.8090 n         1 MOL     -0.377425
     20 C7         -2.1810    5.9450    0.2190 c3        1 MOL      0.099280
     21 C8         -3.2040    5.6340   -0.8660 c         1 MOL      0.271419
     22 O5         -4.2310    6.3290   -1.0800 o         1 MOL     -0.516282
     23 C9         -1.0090    6.8880   -0.3230 c3        1 MOL     -0.258510
     24 C10        -0.1950    7.4350    0.8240 c3        1 MOL      0.023907
     25 C11        -0.8120    8.4520    1.7630 c3        1 MOL     -0.217164
     26 C12        -1.4860    9.5900    0.9880 c3        1 MOL      0.192246
     27 N3         -2.0910   10.5910    1.9960 n4        1 MOL     -0.438412
     28 H8         -0.6210    4.5870    0.6930 hn        1 MOL      0.291580
     29 H9         -2.7140    6.4070    1.0420 h1        1 MOL      0.078323
     30 H10        -1.4700    7.6510   -0.9490 hc        1 MOL      0.101524
     31 H11        -0.3860    6.3540   -1.0510 hc        1 MOL      0.101524
     32 H12         0.6360    8.0150    0.4250 hc        1 MOL      0.059444
     33 H13         0.1050    6.6400    1.5080 hc        1 MOL      0.059444
     34 H14        -0.0150    8.9190    2.3530 hc        1 MOL      0.074739
     35 H15        -1.6070    7.9260    2.2880 hc        1 MOL      0.074739
     36 H16        -2.2540    9.1310    0.3620 hx        1 MOL      0.054408
     37 H17        -0.7490   10.1510    0.4230 hx        1 MOL      0.054408
     38 H18        -2.7090   11.2830    1.5790 hn        1 MOL      0.338948
     39 H19        -2.5850   10.0380    2.6810 hn        1 MOL      0.338948
     40 H20        -1.4210   11.2000    2.4480 hn        1 MOL      0.338948
     41 N4         -2.8660    4.5070   -1.5250 n         1 MOL     -0.048618
     42 C13        -3.6510    3.9890   -2.6670 c3        1 MOL     -0.195555
     43 C14        -4.8360    3.1180   -2.1910 c         1 MOL      0.436786
     44 O6         -5.6480    2.7410   -3.0210 o         1 MOL     -0.485686
     45 C15        -2.7220    3.1810   -3.5650 c3        1 MOL     -0.010010
     46 C16        -2.0400    2.0240   -2.8730 c         1 MOL      0.602092
     47 O7         -2.5160    0.8830   -3.1360 o         1 MOL     -0.698540
     48 O8         -1.0900    2.2260   -2.0510 o         1 MOL     -0.698540
     49 H21        -1.9850    4.0570   -1.3420 hn        1 MOL      0.122596
     50 H22        -3.9800    4.8380   -3.2640 h1        1 MOL      0.138097
     51 H23        -1.9620    3.8380   -3.9900 hc        1 MOL      0.023622
     52 H24        -3.3250    2.8780   -4.4200 hc        1 MOL      0.023622
     53 N5         -4.9820    2.8880   -0.8300 n         1 MOL     -0.034571
     54 C17        -6.1560    2.3210   -0.3000 c3        1 MOL     -0.250157
     55 C18        -6.5580    0.9460   -0.8240 c         1 MOL      0.534126
     56 O9         -7.7110    0.6720   -1.0840 o         1 MOL     -0.577877
     57 H25        -4.2540    3.1400   -0.1710 hn        1 MOL      0.113637
     58 H26        -6.9460    3.0150   -0.5960 h1        1 MOL      0.107639
     59 H27        -6.0400    2.2860    0.7750 h1        1 MOL      0.107639
     60 N6         -5.5890    0.0270   -1.0920 n         1 MOL     -0.123912
     61 C19        -5.8450   -1.3240   -1.6410 c3        1 MOL     -0.178995
     62 C20        -5.8600   -2.4920   -0.6240 c         1 MOL      0.425711
     63 O10        -5.8460   -3.6130   -1.0840 o         1 MOL     -0.502911
     64 C21        -4.9580   -1.6090   -2.8470 c3        1 MOL     -0.078594
     65 C22        -3.7270   -2.3680   -2.4980 c         1 MOL      0.500685
     66 N7         -3.5050   -3.4100   -3.2360 n         1 MOL     -0.639516
     67 O11        -3.0020   -2.0950   -1.5230 o         1 MOL     -0.651502
     68 H28        -4.6310    0.1840   -0.8100 hn        1 MOL      0.114061
     69 H29        -6.8430   -1.2170   -2.0840 h1        1 MOL      0.152920
     70 H30        -4.6540   -0.6350   -3.2170 hc        1 MOL      0.076915
     71 H31        -5.5230   -2.1180   -3.6310 hc        1 MOL      0.076915
     72 H32        -3.8880   -3.4880   -4.1650 hn        1 MOL      0.341794
     73 H33        -2.7420   -3.9920   -2.9230 hn        1 MOL      0.341794
     74 N8         -5.7410   -2.2340    0.6600 n         1 MOL     -0.282553
     75 C23        -5.6020   -3.2940    1.7120 c3        1 MOL     -0.148895
     76 C24        -4.1860   -3.8240    2.0740 c         1 MOL      0.563047
     77 O12        -4.0270   -4.3480    3.2140 o         1 MOL     -0.602204
     78 H34        -5.6840   -1.2710    0.9720 hn        1 MOL      0.274492
     79 H35        -6.0550   -4.1690    1.2370 h1        1 MOL      0.101269
     80 H36        -6.1480   -2.9900    2.6050 h1        1 MOL      0.101269
     81 N9         -3.1910   -3.5090    1.3070 n         1 MOL     -0.313860
     82 C25        -1.8300   -3.9710    1.4050 c3        1 MOL      0.215460
     83 C26        -0.7930   -2.8460    1.5090 c         1 MOL      0.531132
     84 O13        -1.0360   -1.7210    0.9840 o         1 MOL     -0.548245
     85 C27        -1.4480   -4.9470    0.3560 c3        1 MOL     -0.240921
     86 C28        -2.0770   -6.3530    0.5010 ca        1 MOL     -0.044621
     87 C29        -2.9410   -6.7610   -0.5840 ca        1 MOL     -0.052851
     88 C30        -1.8140   -7.3120    1.5340 ca        1 MOL     -0.052851
     89 C31        -3.3160   -8.0950   -0.6650 ca        1 MOL     -0.361729
     90 C32        -2.2440   -8.7040    1.4610 ca        1 MOL     -0.361729
     91 C33        -2.9480   -9.0650    0.3080 ca        1 MOL      0.420851
     92 O14        -3.3940  -10.3240    0.2820 oh        1 MOL     -0.504155
     93 H37        -3.5010   -3.0640    0.4450 hn        1 MOL      0.296617
     94 H38        -1.7890   -4.5690    2.3110 h1        1 MOL      0.026969
     95 H39        -0.3630   -5.0780    0.3470 hc        1 MOL      0.098279
     96 H40        -1.7050   -4.5270   -0.6170 hc        1 MOL      0.098279
     97 H41        -3.2480   -6.0360   -1.3190 ha        1 MOL      0.109390
     98 H42        -1.2970   -7.0970    2.4630 ha        1 MOL      0.109390
     99 H43        -3.9550   -8.4130   -1.4830 ha        1 MOL      0.175407
    100 H44        -2.1370   -9.3430    2.3340 ha        1 MOL      0.175407
    101 H45        -2.9840  -10.8620    0.9720 ho        1 MOL      0.367975
    102 N10         0.2560   -3.1150    2.3060 n         1 MOL     -0.662840
    103 C34         1.5340   -2.4540    2.1350 c3        1 MOL      0.221670
    104 C35         2.5000   -3.2990    1.3210 c         1 MOL      0.387092
    105 O15         2.4560   -4.5120    1.4690 o         1 MOL     -0.554839
    106 C36         2.2000   -2.0350    3.5290 c3        1 MOL      0.043851
    107 C37         1.1950   -0.9670    4.1000 c3        1 MOL      0.067319
    108 C38         3.6800   -1.4860    3.4330 c3        1 MOL     -0.187435
    109 C39         1.3450   -0.4310    5.5970 c3        1 MOL     -0.272037
    110 H46         0.2030   -3.9900    2.8060 hn        1 MOL      0.354383
    111 H47         1.3820   -1.5260    1.6100 h1        1 MOL      0.000003
    112 H48         2.2210   -2.8840    4.2100 hc        1 MOL      0.033909
    113 H49         0.1480   -1.2580    4.0340 hc        1 MOL      0.039265
    114 H50         1.2950   -0.0540    3.5010 hc        1 MOL      0.039265
    115 H51         3.9310   -0.7240    2.6920 hc        1 MOL      0.032868
    116 H52         4.0090   -1.0620    4.3780 hc        1 MOL      0.032868
    117 H53         4.3540   -2.3280    3.2890 hc        1 MOL      0.032868
    118 H54         1.2230   -1.3020    6.2420 hc        1 MOL      0.060140
    119 H55         2.2740    0.1110    5.7590 hc        1 MOL      0.060140
    120 H56         0.4720    0.1510    5.8820 hc        1 MOL      0.060140
    121 N11         3.3350   -2.7080    0.4550 n         1 MOL     -0.042459
    122 C40         4.2530   -3.2170   -0.5580 c3        1 MOL     -0.096690
    123 C41         5.6440   -2.5870   -0.2100 c         1 MOL      0.417786
    124 O16         5.8840   -1.7390    0.6870 o         1 MOL     -0.439253
    125 C42         3.8460   -2.7470   -1.9700 c3        1 MOL     -0.230619
    126 O17         3.8590   -1.3220   -2.1090 oh        1 MOL     -0.524666
    127 H57         3.1470   -1.7130    0.4350 hn        1 MOL      0.154981
    128 H58         4.3620   -4.2980   -0.5060 h1        1 MOL      0.088440
    129 H59         2.9020   -3.2310   -2.2100 h1        1 MOL      0.132786
    130 H60         4.5940   -3.1170   -2.6660 h1        1 MOL      0.132786
    131 H61         2.9790   -1.0670   -1.8180 ho        1 MOL      0.326765
    132 N12         6.7010   -3.0010   -0.9010 n         1 MOL     -0.368144
    133 C43         8.0600   -2.5040   -0.6310 c3        1 MOL      0.127576
    134 C44         8.1950   -0.9930   -1.0840 c         1 MOL      0.452691
    135 O18         8.8210   -0.1410   -0.4060 o         1 MOL     -0.515646
    136 C45         9.0380   -3.3940   -1.2960 c3        1 MOL     -0.291578
    137 H62         6.5400   -3.7030   -1.6160 hn        1 MOL      0.266705
    138 H63         8.1920   -2.5670    0.4510 h1        1 MOL      0.086857
    139 H64         8.7030   -3.5190   -2.3260 hc        1 MOL      0.088821
    140 H65        10.0320   -2.9330   -1.2680 hc        1 MOL      0.088821
    141 H66         9.1230   -4.3990   -0.8830 hc        1 MOL      0.088821
    142 N13         7.6060   -0.6450   -2.2430 n         1 MOL     -0.459504
    143 C46         7.7720    0.7210   -2.8260 c3        1 MOL      0.238335
    144 C47         7.0070    1.8310   -2.0220 c         1 MOL      0.256249
    145 O19         7.4130    3.0200   -2.0710 o         1 MOL     -0.496782
    146 C48         7.4460    0.6850   -4.3230 c3        1 MOL     -0.492017
    147 H67         7.0910   -1.3640   -2.7250 hn        1 MOL      0.297972
    148 H68         8.7910    1.1050   -2.7840 h1        1 MOL      0.090386
    149 H69         7.3580    1.7160   -4.6740 hc        1 MOL      0.136690
    150 H70         8.3120    0.2710   -4.8380 hc        1 MOL      0.136690
    151 H71         6.4840    0.2290   -4.5800 hc        1 MOL      0.136690
    152 N14         5.8550    1.4810   -1.3800 n         1 MOL     -0.028889
    153 C49         5.0750    2.3780   -0.6080 c3        1 MOL     -0.117965
    154 C50         5.4900    2.4810    0.8750 c         1 MOL      0.430942
    155 O20         5.2270    3.4810    1.5390 o         1 MOL     -0.553355
    156 C51         3.6120    1.9820   -0.6840 c3        1 MOL     -0.104003
    157 C52         3.1550    0.8240    0.1870 c3        1 MOL      0.219501
    158 C53         1.7450    0.4000   -0.2040 c         1 MOL      0.346108
    159 O21         1.6850   -0.6190   -0.9130 o         1 MOL     -0.583146
    160 O22         0.6960    0.8930    0.1300 o         1 MOL     -0.583146
    161 H72         5.5380    0.5620   -1.6560 hn        1 MOL      0.160066
    162 H73         5.1440    3.3520   -1.0890 h1        1 MOL      0.125292
    163 H74         3.3130    1.7940   -1.7220 hc        1 MOL      0.037092
    164 H75         3.0010    2.8210   -0.3490 hc        1 MOL      0.037092
    165 H76         3.1090    1.1190    1.2360 hc        1 MOL      0.004069
    166 H77         3.8680    0.0180    0.0670 hc        1 MOL      0.004069
    167 N15         6.2750    1.5420    1.3600 n         1 MOL     -0.072414
    168 C54         7.1080    1.5210    2.6360 c3        1 MOL     -0.343335
    169 H78         7.5240    2.5130    2.8140 h1        1 MOL      0.134299
    170 H79         6.4770    1.2360    3.4780 h1        1 MOL      0.134299
    171 H80         7.9190    0.8000    2.5280 h1        1 MOL      0.134299
    172 H81         6.3620    0.7210    0.7810 hn        1 MOL      0.155172
    173 Ca1        -1.0130   -0.2640   -1.3180 Ca        1 MOL      1.764709
    174 O23         0.3750    0.0290   -3.7390 oh        1 MOL     -0.857482
    175 H82         1.1780   -0.2450   -4.1890 ho        1 MOL      0.417558
    176 H83         0.3130    0.9650   -3.9030 ho        1 MOL      0.417558
    177 O24         0.2330   -2.9390   -1.6370 oh        1 MOL     -0.857482
    178 H84         0.9340   -2.3250   -1.4130 ho        1 MOL      0.417558
    179 H85         0.6880   -3.7700   -1.7930 ho        1 MOL      0.417558
@<TRIPOS>BOND
     1    1    2 1   
     2    1    4 1   
     3    1    5 1   
     4    1    6 1   
     5    2    3 2   
     6    2    7 1   
     7    7    8 1   
     8    7   15 1   
     9    8    9 1   
    10    8   11 1   
    11    8   16 1   
    12    9   10 2   
    13    9   19 1   
    14   11   12 1   
    15   11   17 1   
    16   11   18 1   
    17   12   13 1   
    18   12   14 1   
    19   19   20 1   
    20   19   28 1   
    21   20   21 1   
    22   20   23 1   
    23   20   29 1   
    24   21   22 2   
    25   21   41 1   
    26   23   24 1   
    27   23   30 1   
    28   23   31 1   
    29   24   25 1   
    30   24   32 1   
    31   24   33 1   
    32   25   26 1   
    33   25   34 1   
    34   25   35 1   
    35   26   27 1   
    36   26   36 1   
    37   26   37 1   
    38   27   38 1   
    39   27   39 1   
    40   27   40 1   
    41   41   42 1   
    42   41   49 1   
    43   42   43 1   
    44   42   45 1   
    45   42   50 1   
    46   43   44 2   
    47   43   53 1   
    48   45   46 1   
    49   45   51 1   
    50   45   52 1   
    51   46   47 1   
    52   46   48 1   
    53   53   54 1   
    54   53   57 1   
    55   54   55 1   
    56   54   58 1   
    57   54   59 1   
    58   55   56 2   
    59   55   60 1   
    60   60   61 1   
    61   60   68 1   
    62   61   62 1   
    63   61   64 1   
    64   61   69 1   
    65   62   63 2   
    66   62   74 1   
    67   64   65 1   
    68   64   70 1   
    69   64   71 1   
    70   65   66 1   
    71   65   67 2   
    72   66   72 1   
    73   66   73 1   
    74   74   75 1   
    75   74   78 1   
    76   75   76 1   
    77   75   79 1   
    78   75   80 1   
    79   76   77 2   
    80   76   81 1   
    81   81   82 1   
    82   81   93 1   
    83   82   83 1   
    84   82   85 1   
    85   82   94 1   
    86   83   84 2   
    87   83  102 1   
    88   85   86 1   
    89   85   95 1   
    90   85   96 1   
    91   86   87 ar  
    92   86   88 ar  
    93   87   89 ar  
    94   87   97 1   
    95   88   90 ar  
    96   88   98 1   
    97   89   91 ar  
    98   89   99 1   
    99   90   91 ar  
   100   90  100 1   
   101   91   92 1   
   102   92  101 1   
   103  102  103 1   
   104  102  110 1   
   105  103  104 1   
   106  103  106 1   
   107  103  111 1   
   108  104  105 2   
   109  104  121 1   
   110  106  107 1   
   111  106  108 1   
   112  106  112 1   
   113  107  109 1   
   114  107  113 1   
   115  107  114 1   
   116  108  115 1   
   117  108  116 1   
   118  108  117 1   
   119  109  118 1   
   120  109  119 1   
   121  109  120 1   
   122  121  122 1   
   123  121  127 1   
   124  122  123 1   
   125  122  125 1   
   126  122  128 1   
   127  123  124 2   
   128  123  132 1   
   129  125  126 1   
   130  125  129 1   
   131  125  130 1   
   132  126  131 1   
   133  132  133 1   
   134  132  137 1   
   135  133  134 1   
   136  133  136 1   
   137  133  138 1   
   138  134  135 2   
   139  134  142 1   
   140  136  139 1   
   141  136  140 1   
   142  136  141 1   
   143  142  143 1   
   144  142  147 1   
   145  143  144 1   
   146  143  146 1   
   147  143  148 1   
   148  144  145 2   
   149  144  152 1   
   150  146  149 1   
   151  146  150 1   
   152  146  151 1   
   153  152  153 1   
   154  152  161 1   
   155  153  154 1   
   156  153  156 1   
   157  153  162 1   
   158  154  155 2   
   159  154  167 1   
   160  156  157 1   
   161  156  163 1   
   162  156  164 1   
   163  157  158 1   
   164  157  165 1   
   165  157  166 1   
   166  158  159 1   
   167  158  160 1   
   168  167  168 1   
   169  167  172 1   
   170  168  169 1   
   171  168  170 1   
   172  168  171 1   
   173  174  175 1   
   174  174  176 1   
   175  177  178 1   
   176  177  179 1   
@<TRIPOS>SUBSTRUCTURE
     1 MOL         1 TEMP              0 ****  ****    0 ROOT
