@<TRIPOS>MOLECULE
MOL
  189   185     1     0     0
SMALL
resp


@<TRIPOS>ATOM
      1 C1         -0.4710    2.2360    6.1600 c3        1 MOL     -0.253743
      2 C2         -0.6910    1.8220    4.6900 c         1 MOL      0.842213
      3 O1          0.1510    2.0390    3.8440 o         1 MOL     -0.679612
      4 H1         -1.0780    3.1120    6.3860 hc        1 MOL      0.057680
      5 H2         -0.7610    1.4150    6.8170 hc        1 MOL      0.057680
      6 H3          0.5810    2.4730    6.3180 hc        1 MOL      0.057680
      7 N1         -1.9040    1.4490    4.3090 n         1 MOL     -0.730684
      8 C3         -2.3350    1.5140    2.8860 c3        1 MOL      0.196625
      9 C4         -2.3770    2.9330    2.3540 c         1 MOL      0.559969
     10 O2         -3.0640    3.7560    2.9170 o         1 MOL     -0.571289
     11 C5         -3.7320    0.8350    2.7100 c3        1 MOL     -0.256150
     12 C6         -4.2010    0.5420    1.3060 c         1 MOL      0.841140
     13 O3         -3.3080    0.5000    0.4260 o         1 MOL     -0.705847
     14 O4         -5.4280    0.4460    1.1150 o         1 MOL     -0.705847
     15 H4         -2.6520    1.3100    4.9790 hn        1 MOL      0.348213
     16 H5         -1.6170    0.8420    2.4110 h1        1 MOL      0.004400
     17 H6         -4.5410    1.3990    3.1900 hc        1 MOL      0.053328
     18 H7         -3.7220   -0.1400    3.1880 hc        1 MOL      0.053328
     19 N2         -1.6260    3.2540    1.2860 n         1 MOL     -0.187992
     20 C7         -1.4420    4.6440    0.8060 c3        1 MOL     -0.073135
     21 C8         -2.5000    5.0110   -0.1780 c         1 MOL      0.530217
     22 O5         -3.0460    6.1060   -0.1280 o         1 MOL     -0.594562
     23 C9         -0.0060    4.7880    0.2440 c3        1 MOL      0.128774
     24 C10         1.2550    4.5800    1.1450 c3        1 MOL      0.050935
     25 C11         1.3820    5.5660    2.3730 c3        1 MOL     -0.446646
     26 C12         1.0950    7.0070    1.9810 c3        1 MOL      0.243078
     27 N3          0.7950    7.8620    3.0980 n4        1 MOL     -0.433509
     28 H8         -0.9320    2.5960    0.9540 hn        1 MOL      0.153011
     29 H9         -1.4870    5.3130    1.6650 h1        1 MOL      0.045826
     30 H10         0.0240    5.7020   -0.3560 hc        1 MOL     -0.054168
     31 H11         0.0440    4.0060   -0.5140 hc        1 MOL     -0.054168
     32 H12         2.0440    4.6720    0.4110 hc        1 MOL      0.056823
     33 H13         1.1950    3.5980    1.6130 hc        1 MOL      0.056823
     34 H14         2.3640    5.4150    2.8350 hc        1 MOL      0.156596
     35 H15         0.6010    5.2670    3.0750 hc        1 MOL      0.156596
     36 H16         0.3170    7.1880    1.2400 hx        1 MOL      0.030019
     37 H17         2.0350    7.3990    1.5890 hx        1 MOL      0.030019
     38 H18         1.6180    7.9810    3.6640 hn        1 MOL      0.343348
     39 H19         0.6060    8.8230    2.8270 hn        1 MOL      0.343348
     40 H20        -0.0010    7.4970    3.5960 hn        1 MOL      0.343348
     41 N4         -2.7820    4.1270   -1.1160 n         1 MOL     -0.272057
     42 C13        -3.6140    4.3000   -2.3370 c3        1 MOL      0.147247
     43 C14        -4.9140    3.5050   -2.2050 c         1 MOL      0.303024
     44 O6         -5.7100    3.6470   -3.1650 o         1 MOL     -0.534706
     45 C15        -2.8790    3.9010   -3.5870 c3        1 MOL     -0.316462
     46 C16        -2.2210    2.5190   -3.5120 c         1 MOL      0.917030
     47 O7         -1.1660    2.2600   -4.1640 o         1 MOL     -0.761967
     48 O8         -2.7160    1.6150   -2.7680 o         1 MOL     -0.761967
     49 H21        -2.3520    3.2300   -0.9430 hn        1 MOL      0.100955
     50 H22        -3.8510    5.3580   -2.3940 h1        1 MOL      0.092891
     51 H23        -2.1570    4.6590   -3.8730 hc        1 MOL      0.074240
     52 H24        -3.5450    3.8790   -4.4450 hc        1 MOL      0.074240
     53 N5         -5.2850    2.6980   -1.2140 n         1 MOL     -0.027428
     54 C17        -6.6700    2.4440   -0.8360 c3        1 MOL     -0.301823
     55 C18        -7.1660    1.0410   -1.1560 c         1 MOL      0.608749
     56 O9         -8.4000    0.8410   -1.0550 o         1 MOL     -0.598750
     57 H25        -4.5810    2.5530   -0.4970 hn        1 MOL      0.118027
     58 H26        -7.3490    3.0890   -1.3900 h1        1 MOL      0.132901
     59 H27        -6.7200    2.7100    0.2180 h1        1 MOL      0.132901
     60 N6         -6.3100    0.1550   -1.6630 n         1 MOL     -0.306947
     61 C19        -6.8100   -1.2410   -2.0450 c3        1 MOL     -0.007753
     62 C20        -7.0690   -2.2840   -0.8660 c         1 MOL      0.392287
     63 O10        -7.5440   -3.3930   -1.0550 o         1 MOL     -0.536811
     64 C21        -5.9260   -1.9730   -3.1080 c3        1 MOL     -0.161466
     65 C22        -4.4040   -1.6450   -2.8700 c         1 MOL      0.519553
     66 O11        -3.8240   -0.9610   -3.7010 o         1 MOL     -0.576364
     67 O12        -4.0060   -1.9270   -1.6690 o         1 MOL     -0.576364
     68 H28        -5.3270    0.3350   -1.5940 hn        1 MOL      0.251473
     69 H29        -7.8010   -1.0830   -2.4720 h1        1 MOL      0.106141
     70 H30        -6.2810   -1.5780   -4.0650 hc        1 MOL      0.051990
     71 H31        -6.1210   -3.0400   -3.0710 hc        1 MOL      0.051990
     72 N7         -6.6970   -1.9370    0.3220 n         1 MOL     -0.171992
     73 C23        -6.7220   -2.7900    1.4880 c3        1 MOL     -0.011192
     74 C24        -5.5630   -3.8220    1.5410 c         1 MOL      0.479428
     75 O13        -5.7600   -4.9220    2.0810 o         1 MOL     -0.569089
     76 H32        -6.1790   -1.0680    0.3560 hn        1 MOL      0.200237
     77 H33        -7.6990   -3.2010    1.7260 h1        1 MOL      0.049288
     78 H34        -6.4310   -2.1750    2.3440 h1        1 MOL      0.049288
     79 N8         -4.4120   -3.5620    0.9200 n         1 MOL     -0.062708
     80 C25        -3.1600   -4.3380    1.0570 c3        1 MOL     -0.330130
     81 C26        -1.9120   -3.5170    1.1260 c         1 MOL      0.802370
     82 O14        -1.9070   -2.4490    0.5250 o         1 MOL     -0.745308
     83 C27        -3.1230   -5.2380   -0.1510 c3        1 MOL      0.494381
     84 C28        -4.2680   -6.2490   -0.2940 c3        1 MOL     -0.428242
     85 O15        -2.9890   -4.5250   -1.3990 oh        1 MOL     -0.660437
     86 H35        -4.3030   -2.7470    0.3380 hn        1 MOL      0.029248
     87 H36        -3.1120   -4.9150    1.9890 h1        1 MOL      0.097907
     88 H37        -2.2620   -5.8840    0.0390 h1        1 MOL     -0.017656
     89 H38        -3.5290   -3.7350   -1.3530 ho        1 MOL      0.416896
     90 H39        -4.2900   -6.8260    0.6340 hc        1 MOL      0.114055
     91 H40        -5.2660   -5.8270   -0.4190 hc        1 MOL      0.114055
     92 H41        -3.9800   -6.9890   -1.0430 hc        1 MOL      0.114055
     93 N9         -0.8650   -3.9590    1.7730 n         1 MOL     -0.573080
     94 C29         0.4540   -3.2740    1.8250 c3        1 MOL      0.048237
     95 C30         1.5960   -3.7400    0.9450 c         1 MOL      0.664335
     96 O16         1.8320   -4.8900    1.0240 o         1 MOL     -0.592612
     97 C31         0.9090   -3.0380    3.2580 c3        1 MOL      0.118523
     98 C32        -0.2200   -2.3720    4.1210 c3        1 MOL      0.033825
     99 C33         2.1990   -2.2280    3.3250 c3        1 MOL     -0.458221
    100 C34         0.2560   -2.2550    5.5760 c3        1 MOL     -0.309170
    101 H42        -0.9540   -4.8360    2.2620 hn        1 MOL      0.305148
    102 H43         0.2770   -2.2550    1.4820 h1        1 MOL      0.089519
    103 H44         1.1870   -4.0040    3.6800 hc        1 MOL     -0.012162
    104 H45        -1.2200   -2.8090    4.0710 hc        1 MOL      0.031339
    105 H46        -0.3600   -1.3650    3.7200 hc        1 MOL      0.031339
    106 H47         2.9290   -2.6090    2.6130 hc        1 MOL      0.103413
    107 H48         1.9620   -1.1560    3.2960 hc        1 MOL      0.103413
    108 H49         2.6890   -2.4470    4.2660 hc        1 MOL      0.103413
    109 H50         0.4960   -3.2100    6.0570 hc        1 MOL      0.078895
    110 H51         1.1590   -1.6640    5.5800 hc        1 MOL      0.078895
    111 H52        -0.5130   -1.8210    6.2180 hc        1 MOL      0.078895
    112 N10         2.0510   -2.9900   -0.0570 n         1 MOL     -0.331312
    113 C35         3.1580   -3.2190   -1.0100 c3        1 MOL     -0.016459
    114 C36         4.4630   -2.9280   -0.3570 c         1 MOL      0.450200
    115 O17         4.6810   -2.2980    0.6650 o         1 MOL     -0.361450
    116 C37         3.0790   -2.3980   -2.3040 c3        1 MOL      0.132063
    117 C38         2.0270   -2.8740   -3.2580 c3        1 MOL     -0.409532
    118 O18         2.8870   -1.0510   -2.1830 oh        1 MOL     -0.521727
    119 H53         1.6650   -2.0520   -0.0990 hn        1 MOL      0.233254
    120 H54         3.1740   -4.2630   -1.3170 h1        1 MOL      0.083400
    121 H55         4.0080   -2.6320   -2.8300 h1        1 MOL      0.083981
    122 H56         1.9720   -0.8180   -1.9840 ho        1 MOL      0.367131
    123 H57         1.0790   -2.5080   -2.8820 hc        1 MOL      0.114499
    124 H58         2.1720   -2.3220   -4.1850 hc        1 MOL      0.114499
    125 H59         1.9150   -3.8880   -3.6440 hc        1 MOL      0.114499
    126 N11         5.5210   -3.4360   -0.9850 n         1 MOL     -0.454511
    127 C39         7.0040   -3.2510   -0.5590 c3        1 MOL      0.085413
    128 C40         7.2880   -1.7050   -0.2100 c         1 MOL      0.244145
    129 O19         7.7590   -1.3700    0.9240 o         1 MOL     -0.488133
    130 C41         8.0240   -3.6450   -1.7180 c3        1 MOL      0.199424
    131 C42         7.9690   -5.2000   -1.9370 c3        1 MOL     -0.293680
    132 O20         7.5160   -3.1240   -2.8950 oh        1 MOL     -0.638555
    133 H60         5.2890   -3.9240   -1.8380 hn        1 MOL      0.282788
    134 H61         7.3680   -3.8020    0.3000 h1        1 MOL      0.111089
    135 H62         9.0370   -3.3550   -1.4610 h1        1 MOL      0.059680
    136 H63         8.1640   -3.3490   -3.5690 ho        1 MOL      0.428436
    137 H64         8.4290   -5.5000   -2.8840 hc        1 MOL      0.086147
    138 H65         8.4270   -5.6710   -1.0690 hc        1 MOL      0.086147
    139 H66         6.9610   -5.6080   -1.9020 hc        1 MOL      0.086147
    140 N12         6.8900   -0.7950   -1.1070 n         1 MOL     -0.102849
    141 C43         7.1720    0.6510   -0.9680 c3        1 MOL     -0.077506
    142 C44         6.3110    1.2430    0.1230 c         1 MOL      0.450821
    143 O21         6.6400    2.2770    0.6680 o         1 MOL     -0.544189
    144 C45         7.0270    1.2660   -2.3280 c3        1 MOL     -0.209758
    145 C46         7.3080    2.7810   -2.4880 c3        1 MOL      0.368495
    146 C47         7.0120    3.1130   -3.9640 c3        1 MOL     -0.254363
    147 C48         6.9420    4.6680   -4.0210 c3        1 MOL     -0.074612
    148 N13         5.6690    5.1480   -3.5310 n4        1 MOL     -0.436752
    149 H67         6.6000   -1.2110   -1.9790 hn        1 MOL      0.203132
    150 H68         8.1560    0.7980   -0.5380 h1        1 MOL      0.117905
    151 H69         5.9980    1.0240   -2.6200 hc        1 MOL      0.047098
    152 H70         7.7530    0.6800   -2.9030 hc        1 MOL      0.047098
    153 H71         8.3340    2.9520   -2.1800 hc        1 MOL     -0.059634
    154 H72         6.6830    3.3340   -1.7760 hc        1 MOL     -0.059634
    155 H73         6.0160    2.7460   -4.2130 hc        1 MOL      0.118820
    156 H74         7.8480    2.7420   -4.5540 hc        1 MOL      0.118820
    157 H75         6.9920    4.8350   -5.1020 hx        1 MOL      0.134778
    158 H76         7.8430    5.1620   -3.6480 hx        1 MOL      0.134778
    159 H77         5.6530    4.9980   -2.5370 hn        1 MOL      0.355456
    160 H78         5.4280    6.1270   -3.6080 hn        1 MOL      0.355456
    161 H79         4.8380    4.6810   -3.8730 hn        1 MOL      0.355456
    162 N14         5.1720    0.5840    0.4790 n         1 MOL     -0.036206
    163 C49         4.2000    0.9170    1.5150 c3        1 MOL     -0.220423
    164 C50         4.7190    0.5410    2.9310 c         1 MOL      0.554201
    165 O22         4.6720    1.3040    3.9220 o         1 MOL     -0.561948
    166 C51         2.7910    0.4210    1.2100 c3        1 MOL     -0.163464
    167 C52         2.0780    1.1940    0.0120 c3        1 MOL      0.080331
    168 C53         0.7360    0.5900   -0.3380 c         1 MOL      0.683000
    169 O23         0.6320   -0.6350   -0.5520 o         1 MOL     -0.649581
    170 O24        -0.3150    1.2640   -0.2650 o         1 MOL     -0.649581
    171 H80         4.9610   -0.2200   -0.0960 hn        1 MOL      0.117328
    172 H81         4.1520    2.0060    1.4620 h1        1 MOL      0.073771
    173 H82         2.1590    0.4710    2.0910 hc        1 MOL      0.132796
    174 H83         2.8720   -0.6380    0.9640 hc        1 MOL      0.132796
    175 H84         2.6570    1.0470   -0.9010 hc        1 MOL     -0.088190
    176 H85         2.0840    2.2680    0.2040 hc        1 MOL     -0.088190
    177 N15         5.2820   -0.6580    3.0300 n         1 MOL     -0.154623
    178 C54         6.1680   -0.9480    4.1290 c3        1 MOL     -0.479732
    179 H86         5.8300   -0.4140    5.0170 h1        1 MOL      0.160973
    180 H87         6.1650   -2.0200    4.3260 h1        1 MOL      0.160973
    181 H88         7.1780   -0.6270    3.8760 h1        1 MOL      0.160973
    182 H89         5.4010   -1.2360    2.2100 hn        1 MOL      0.220167
    183 Ca1        -1.8760   -0.4650   -1.3340 Ca        1 MOL      1.713088
    184 O25        -1.3720   -2.8360   -2.4420 oh        1 MOL     -0.925646
    185 H90        -1.8510   -3.5200   -1.9780 ho        1 MOL      0.424898
    186 H91        -1.2460   -3.1930   -3.3300 ho        1 MOL      0.424898
    187 O26        -0.1530   -0.0090   -3.4020 oh        1 MOL     -0.925646
    188 H92         0.2830   -0.3880   -4.1700 ho        1 MOL      0.424898
    189 H93        -0.4350    0.8580   -3.6950 ho        1 MOL      0.424898
@<TRIPOS>BOND
     1    1    2 1   
     2    1    4 1   
     3    1    5 1   
     4    1    6 1   
     5    2    3 2   
     6    2    7 1   
     7    7    8 1   
     8    7   15 1   
     9    8    9 1   
    10    8   11 1   
    11    8   16 1   
    12    9   10 2   
    13    9   19 1   
    14   11   12 1   
    15   11   17 1   
    16   11   18 1   
    17   12   13 1   
    18   12   14 1   
    19   19   20 1   
    20   19   28 1   
    21   20   21 1   
    22   20   23 1   
    23   20   29 1   
    24   21   22 2   
    25   21   41 1   
    26   23   24 1   
    27   23   30 1   
    28   23   31 1   
    29   24   25 1   
    30   24   32 1   
    31   24   33 1   
    32   25   26 1   
    33   25   34 1   
    34   25   35 1   
    35   26   27 1   
    36   26   36 1   
    37   26   37 1   
    38   27   38 1   
    39   27   39 1   
    40   27   40 1   
    41   41   42 1   
    42   41   49 1   
    43   42   43 1   
    44   42   45 1   
    45   42   50 1   
    46   43   44 2   
    47   43   53 1   
    48   45   46 1   
    49   45   51 1   
    50   45   52 1   
    51   46   47 1   
    52   46   48 1   
    53   53   54 1   
    54   53   57 1   
    55   54   55 1   
    56   54   58 1   
    57   54   59 1   
    58   55   56 2   
    59   55   60 1   
    60   60   61 1   
    61   60   68 1   
    62   61   62 1   
    63   61   64 1   
    64   61   69 1   
    65   62   63 2   
    66   62   72 1   
    67   64   65 1   
    68   64   70 1   
    69   64   71 1   
    70   65   66 1   
    71   65   67 1   
    72   72   73 1   
    73   72   76 1   
    74   73   74 1   
    75   73   77 1   
    76   73   78 1   
    77   74   75 2   
    78   74   79 1   
    79   79   80 1   
    80   79   86 1   
    81   80   81 1   
    82   80   83 1   
    83   80   87 1   
    84   81   82 2   
    85   81   93 1   
    86   83   84 1   
    87   83   85 1   
    88   83   88 1   
    89   84   90 1   
    90   84   91 1   
    91   84   92 1   
    92   85   89 1   
    93   93   94 1   
    94   93  101 1   
    95   94   95 1   
    96   94   97 1   
    97   94  102 1   
    98   95   96 2   
    99   95  112 1   
   100   97   98 1   
   101   97   99 1   
   102   97  103 1   
   103   98  100 1   
   104   98  104 1   
   105   98  105 1   
   106   99  106 1   
   107   99  107 1   
   108   99  108 1   
   109  100  109 1   
   110  100  110 1   
   111  100  111 1   
   112  112  113 1   
   113  112  119 1   
   114  113  114 1   
   115  113  116 1   
   116  113  120 1   
   117  114  115 2   
   118  114  126 1   
   119  116  117 1   
   120  116  118 1   
   121  116  121 1   
   122  117  123 1   
   123  117  124 1   
   124  117  125 1   
   125  118  122 1   
   126  126  127 1   
   127  126  133 1   
   128  127  128 1   
   129  127  130 1   
   130  127  134 1   
   131  128  129 2   
   132  128  140 1   
   133  130  131 1   
   134  130  132 1   
   135  130  135 1   
   136  131  137 1   
   137  131  138 1   
   138  131  139 1   
   139  132  136 1   
   140  140  141 1   
   141  140  149 1   
   142  141  142 1   
   143  141  144 1   
   144  141  150 1   
   145  142  143 2   
   146  142  162 1   
   147  144  145 1   
   148  144  151 1   
   149  144  152 1   
   150  145  146 1   
   151  145  153 1   
   152  145  154 1   
   153  146  147 1   
   154  146  155 1   
   155  146  156 1   
   156  147  148 1   
   157  147  157 1   
   158  147  158 1   
   159  148  159 1   
   160  148  160 1   
   161  148  161 1   
   162  162  163 1   
   163  162  171 1   
   164  163  164 1   
   165  163  166 1   
   166  163  172 1   
   167  164  165 2   
   168  164  177 1   
   169  166  167 1   
   170  166  173 1   
   171  166  174 1   
   172  167  168 1   
   173  167  175 1   
   174  167  176 1   
   175  168  169 1   
   176  168  170 1   
   177  177  178 1   
   178  177  182 1   
   179  178  179 1   
   180  178  180 1   
   181  178  181 1   
   182  184  185 1   
   183  184  186 1   
   184  187  188 1   
   185  187  189 1   
@<TRIPOS>SUBSTRUCTURE
     1 MOL         1 TEMP              0 ****  ****    0 ROOT
