@<TRIPOS>MOLECULE
MOL
  189   185     1     0     0
SMALL
resp


@<TRIPOS>ATOM
      1 C1          0.1780    3.3580   -4.8710 c3        1 MOL     -0.315626
      2 C2          0.7270    2.9890   -3.5250 c         1 MOL      0.663054
      3 O1          0.1310    3.2830   -2.4860 o         1 MOL     -0.626474
      4 H1          0.7790    4.1600   -5.3010 hc        1 MOL      0.081697
      5 H2          0.2110    2.4890   -5.5280 hc        1 MOL      0.081697
      6 H3         -0.8540    3.6940   -4.7640 hc        1 MOL      0.081697
      7 N1          1.8960    2.3070   -3.4680 n         1 MOL     -0.561775
      8 C3          2.5190    1.8270   -2.2080 c3        1 MOL      0.071989
      9 C4          3.3690    2.8840   -1.4560 c         1 MOL      0.482892
     10 O2          4.5820    2.8110   -1.4540 o         1 MOL     -0.440616
     11 C5          3.2320    0.5360   -2.4610 c3        1 MOL      0.015504
     12 C6          4.0320   -0.0590   -1.3310 c         1 MOL      0.442309
     13 O3          3.4370   -0.0230   -0.1830 o         1 MOL     -0.574486
     14 O4          5.1470   -0.5610   -1.5340 o         1 MOL     -0.574486
     15 H4          2.3890    2.1430   -4.3280 hn        1 MOL      0.317472
     16 H5          1.6800    1.6400   -1.5410 h1        1 MOL      0.171710
     17 H6          3.7920    0.5290   -3.4020 hc        1 MOL     -0.008861
     18 H7          2.4240   -0.1510   -2.7090 hc        1 MOL     -0.008861
     19 N2          2.6710    3.8940   -0.9860 n         1 MOL     -0.341162
     20 C7          3.2520    5.1600   -0.3860 c3        1 MOL     -0.167469
     21 C8          4.0740    4.9610    0.8530 c         1 MOL      0.511093
     22 O5          4.8010    5.8780    1.2670 o         1 MOL     -0.571745
     23 C9          2.0760    6.1090   -0.0300 c3        1 MOL     -0.234054
     24 C10         1.0970    6.3870   -1.2280 c3        1 MOL      0.267323
     25 C11         0.3020    7.6300   -0.9120 c3        1 MOL     -0.154038
     26 C12        -0.9520    7.5310   -1.8130 c3        1 MOL     -0.024405
     27 N3         -0.7480    8.2390   -3.1150 n4        1 MOL     -0.420642
     28 H8          1.6610    3.8990   -1.0270 hn        1 MOL      0.250577
     29 H9          3.8560    5.6770   -1.1350 h1        1 MOL      0.117670
     30 H10         2.4590    7.0110    0.4300 hc        1 MOL      0.107552
     31 H11         1.5140    5.6250    0.7760 hc        1 MOL      0.107552
     32 H12         0.3740    5.5840   -1.3560 hc        1 MOL     -0.023256
     33 H13         1.6160    6.4560   -2.1890 hc        1 MOL     -0.023256
     34 H14         0.8790    8.5460   -1.0640 hc        1 MOL      0.059557
     35 H15        -0.0860    7.5790    0.0990 hc        1 MOL      0.059557
     36 H16        -1.7420    8.1010   -1.3260 hx        1 MOL      0.128359
     37 H17        -1.2510    6.4820   -1.8560 hx        1 MOL      0.128359
     38 H18        -0.0680    7.6720   -3.5940 hn        1 MOL      0.340598
     39 H19        -1.5350    8.1770   -3.7400 hn        1 MOL      0.340598
     40 H20        -0.4540    9.2030   -3.0550 hn        1 MOL      0.340598
     41 N4          3.9590    3.8210    1.4830 n         1 MOL     -0.212223
     42 C13         4.6470    3.4630    2.7230 c3        1 MOL      0.134559
     43 C14         5.8130    2.4980    2.2990 c         1 MOL      0.329227
     44 O6          6.6990    2.2850    3.1760 o         1 MOL     -0.545334
     45 C15         3.7840    2.9860    3.8480 c3        1 MOL     -0.304077
     46 C16         2.6080    2.0840    3.4640 c         1 MOL      0.831002
     47 O7          2.7120    1.1170    2.6550 o         1 MOL     -0.721444
     48 O8          1.4970    2.3540    3.9440 o         1 MOL     -0.721444
     49 H21         3.5510    3.0220    1.0130 hn        1 MOL      0.151319
     50 H22         5.2650    4.3000    3.0570 h1        1 MOL      0.079591
     51 H23         3.2970    3.8040    4.3880 hc        1 MOL      0.070074
     52 H24         4.3430    2.4090    4.5820 hc        1 MOL      0.070074
     53 N5          5.8110    1.9500    1.1210 n         1 MOL      0.013115
     54 C17         7.0460    1.2830    0.5770 c3        1 MOL     -0.124698
     55 C18         7.2520   -0.1480    1.0420 c         1 MOL      0.498119
     56 O9          8.4310   -0.4720    1.2200 o         1 MOL     -0.566055
     57 H25         5.0550    2.1690    0.4960 hn        1 MOL     -0.019905
     58 H26         7.8590    1.9840    0.7230 h1        1 MOL      0.097686
     59 H27         6.8970    1.3680   -0.4990 h1        1 MOL      0.097686
     60 N6          6.2060   -0.9450    1.3710 n         1 MOL     -0.218590
     61 C19         6.4910   -2.3490    1.8260 c3        1 MOL      0.102618
     62 C20         6.6080   -3.2720    0.5670 c         1 MOL      0.354575
     63 O10         7.0640   -4.4290    0.6490 o         1 MOL     -0.548268
     64 C21         5.4900   -2.8720    2.9260 c3        1 MOL     -0.234406
     65 C22         4.0510   -2.4270    2.5700 c         1 MOL      0.713248
     66 O11         3.3540   -1.7720    3.3900 o         1 MOL     -0.694547
     67 O12         3.5410   -2.6980    1.4320 o         1 MOL     -0.694547
     68 H28         5.2560   -0.7280    1.0710 hn        1 MOL      0.090971
     69 H29         7.4740   -2.4530    2.2960 h1        1 MOL      0.099161
     70 H30         5.7380   -2.3170    3.8320 hc        1 MOL      0.072208
     71 H31         5.6010   -3.9450    3.0930 hc        1 MOL      0.072208
     72 N7          6.2230   -2.8110   -0.6620 n         1 MOL     -0.189838
     73 C23         6.2460   -3.6420   -1.8810 c3        1 MOL     -0.108071
     74 C24         4.8940   -4.2180   -2.1730 c         1 MOL      0.448306
     75 O13         4.8080   -5.0420   -3.0760 o         1 MOL     -0.565789
     76 H32         6.0810   -1.8270   -0.8440 hn        1 MOL      0.211071
     77 H33         6.8800   -4.5050   -1.6630 h1        1 MOL      0.097617
     78 H34         6.7440   -3.2410   -2.7720 h1        1 MOL      0.097617
     79 N8          3.7940   -3.7220   -1.6070 n         1 MOL     -0.207656
     80 C25         2.4630   -4.4200   -1.6010 c3        1 MOL     -0.183154
     81 C26         1.2890   -3.4440   -1.4850 c         1 MOL      0.713604
     82 O14         1.4490   -2.4590   -0.7580 o         1 MOL     -0.702320
     83 C27         2.4990   -5.4380   -0.4340 c3        1 MOL      0.432117
     84 C28         3.6740   -6.4110   -0.3140 c3        1 MOL     -0.535660
     85 O15         2.2440   -4.8160    0.7800 oh        1 MOL     -0.618690
     86 H35         3.9370   -3.0380   -0.8850 hn        1 MOL      0.220257
     87 H36         2.2350   -4.9540   -2.5190 h1        1 MOL      0.066616
     88 H37         1.6090   -6.0420   -0.5850 h1        1 MOL     -0.023915
     89 H38         2.8660   -4.0780    0.8100 ho        1 MOL      0.377614
     90 H39         4.6510   -5.9240   -0.2500 hc        1 MOL      0.147103
     91 H40         3.4640   -6.9620    0.5980 hc        1 MOL      0.147103
     92 H41         3.7970   -7.0550   -1.1850 hc        1 MOL      0.147103
     93 N9          0.2230   -3.6640   -2.1670 n         1 MOL     -0.580528
     94 C29        -0.8580   -2.6940   -2.3510 c3        1 MOL     -0.019085
     95 C30        -2.1190   -3.2920   -1.7200 c         1 MOL      0.540339
     96 O16        -2.4840   -4.4040   -2.0710 o         1 MOL     -0.579131
     97 C31        -1.0900   -2.3260   -3.8540 c3        1 MOL      0.367757
     98 C32         0.2250   -1.7910   -4.4890 c3        1 MOL      0.128916
     99 C33        -2.1320   -1.2290   -3.8990 c3        1 MOL     -0.913519
    100 C34         0.2140   -1.6670   -6.0680 c3        1 MOL     -0.210308
    101 H42         0.1120   -4.4880   -2.7380 hn        1 MOL      0.316097
    102 H43        -0.5740   -1.7850   -1.8190 h1        1 MOL      0.142792
    103 H44        -1.3800   -3.2310   -4.3790 hc        1 MOL     -0.035168
    104 H45         1.1350   -2.3630   -4.3220 hc        1 MOL     -0.008836
    105 H46         0.3490   -0.8190   -4.0210 hc        1 MOL     -0.008836
    106 H47        -2.5410   -1.1540   -2.8930 hc        1 MOL      0.199587
    107 H48        -1.7130   -0.2460   -4.0880 hc        1 MOL      0.199587
    108 H49        -2.8620   -1.5240   -4.6510 hc        1 MOL      0.199587
    109 H50        -0.4220   -0.8210   -6.3200 hc        1 MOL      0.049611
    110 H51         1.1540   -1.2160   -6.4030 hc        1 MOL      0.049611
    111 H52         0.0650   -2.5760   -6.6480 hc        1 MOL      0.049611
    112 N10        -2.7400   -2.6210   -0.7660 n         1 MOL     -0.129407
    113 C35        -3.9600   -3.0150   -0.0120 c3        1 MOL     -0.108614
    114 C36        -5.1630   -2.2100   -0.5450 c         1 MOL      0.380044
    115 O17        -5.0080   -1.1890   -1.2150 o         1 MOL     -0.365944
    116 C37        -3.8020   -2.8480    1.5120 c3        1 MOL      0.336862
    117 C38        -2.7580   -3.7980    2.0480 c3        1 MOL     -0.415043
    118 O18        -3.4690   -1.5230    1.8130 oh        1 MOL     -0.668427
    119 H53        -2.3750   -1.6960   -0.5710 hn        1 MOL      0.163215
    120 H54        -4.1410   -4.0770   -0.1640 h1        1 MOL      0.071688
    121 H55        -4.7610   -3.0860    1.9740 h1        1 MOL      0.005546
    122 H56        -2.5910   -1.3970    1.4500 ho        1 MOL      0.488737
    123 H57        -1.8330   -3.5770    1.5120 hc        1 MOL      0.106305
    124 H58        -2.6530   -3.6970    3.1340 hc        1 MOL      0.106305
    125 H59        -3.2380   -4.7600    1.8820 hc        1 MOL      0.106305
    126 N11        -6.3810   -2.7470   -0.1680 n         1 MOL     -0.276170
    127 C39        -7.6900   -2.0320   -0.4810 c3        1 MOL     -0.433447
    128 C40        -7.6470   -0.5600   -0.1590 c         1 MOL      0.602062
    129 O19        -8.1100    0.3170   -0.9220 o         1 MOL     -0.513443
    130 C41        -8.8650   -2.8020    0.2200 c3        1 MOL      0.442451
    131 C42        -9.0580   -4.1050   -0.3890 c3        1 MOL     -0.405256
    132 O20        -8.6650   -2.9070    1.5580 oh        1 MOL     -0.682505
    133 H60        -6.5310   -3.6170    0.3190 hn        1 MOL      0.276186
    134 H61        -7.8200   -2.0610   -1.5600 h1        1 MOL      0.200367
    135 H62        -9.7400   -2.1690    0.1280 h1        1 MOL      0.015093
    136 H63        -9.4290   -3.2450    2.0360 ho        1 MOL      0.434775
    137 H64        -8.1390   -4.6470   -0.1480 hc        1 MOL      0.113387
    138 H65        -9.8680   -4.6070    0.1340 hc        1 MOL      0.113387
    139 H66        -9.3000   -3.9560   -1.4500 hc        1 MOL      0.113387
    140 N12        -6.9980   -0.2250    0.9820 n         1 MOL     -0.381126
    141 C43        -6.8840    1.1500    1.4310 c3        1 MOL     -0.095733
    142 C44        -6.1600    2.0050    0.4090 c         1 MOL      0.441937
    143 O21        -6.4620    3.1440    0.1650 o         1 MOL     -0.500205
    144 C45        -6.1730    1.1250    2.8150 c3        1 MOL      0.076012
    145 C46        -6.8540    0.2300    3.8670 c3        1 MOL     -0.151936
    146 C47        -6.1250    0.3740    5.2230 c3        1 MOL      0.042298
    147 C48        -5.9290    1.7110    5.9130 c3        1 MOL      0.112036
    148 N13        -5.4740    1.6410    7.3750 n4        1 MOL     -0.473328
    149 H67        -6.5790   -0.9650    1.5330 hn        1 MOL      0.295791
    150 H68        -7.8580    1.6370    1.4440 h1        1 MOL      0.099435
    151 H69        -6.0600    2.1600    3.1410 hc        1 MOL     -0.016954
    152 H70        -5.2000    0.6890    2.6180 hc        1 MOL     -0.016954
    153 H71        -6.7300   -0.8130    3.5650 hc        1 MOL      0.063150
    154 H72        -7.8830    0.5510    3.9470 hc        1 MOL      0.063150
    155 H73        -5.0850    0.1050    5.0780 hc        1 MOL      0.019893
    156 H74        -6.6020   -0.3210    5.9250 hc        1 MOL      0.019893
    157 H75        -6.9050    2.1960    5.9120 hx        1 MOL      0.071253
    158 H76        -5.2370    2.3230    5.3300 hx        1 MOL      0.071253
    159 H77        -4.5270    1.3060    7.5030 hn        1 MOL      0.331815
    160 H78        -5.3180    2.5910    7.6710 hn        1 MOL      0.331815
    161 H79        -6.1180    1.1030    7.9380 hn        1 MOL      0.331815
    162 N14        -5.0310    1.4390   -0.0660 n         1 MOL     -0.150512
    163 C49        -4.2390    2.1220   -1.0730 c3        1 MOL     -0.462725
    164 C50        -4.8340    2.3450   -2.4130 c         1 MOL      0.569017
    165 O22        -4.6300    3.4540   -3.0120 o         1 MOL     -0.594754
    166 C51        -2.7980    1.5070   -1.1910 c3        1 MOL      0.093885
    167 C52        -2.1200    1.4630    0.2490 c3        1 MOL     -0.227182
    168 C53        -0.9280    0.4650    0.3410 c         1 MOL      0.804336
    169 O23         0.2490    0.8690    0.2050 o         1 MOL     -0.826250
    170 O24        -1.1120   -0.7020    0.7240 o         1 MOL     -0.826250
    171 H80        -4.8720    0.4930    0.2610 hn        1 MOL      0.301993
    172 H81        -4.1010    3.0900   -0.5920 h1        1 MOL      0.180373
    173 H82        -2.1700    1.9630   -1.9570 hc        1 MOL      0.065640
    174 H83        -2.8780    0.4750   -1.5340 hc        1 MOL      0.065640
    175 H84        -2.8400    1.1070    0.9680 hc        1 MOL      0.061339
    176 H85        -1.8230    2.4870    0.4740 hc        1 MOL      0.061339
    177 N15        -5.6090    1.4310   -2.8940 n         1 MOL     -0.093121
    178 C54        -6.3870    1.6200   -4.1210 c3        1 MOL     -0.448181
    179 H86        -7.1760    2.3510   -3.9400 h1        1 MOL      0.157569
    180 H87        -5.7330    1.9820   -4.9150 h1        1 MOL      0.157569
    181 H88        -6.8320    0.6710   -4.4200 h1        1 MOL      0.157569
    182 H89        -5.7580    0.6040   -2.3480 hn        1 MOL      0.180004
    183 Ca1         1.6210   -0.8900    1.4000 Ca        1 MOL      1.786265
    184 O25         0.6190   -3.1280    2.3670 oh        1 MOL     -0.795228
    185 H90         0.8660   -3.7300    1.6660 ho        1 MOL      0.383628
    186 H91         0.2330   -3.6830    3.0310 ho        1 MOL      0.383628
    187 O26         0.1120   -0.2210    3.5040 oh        1 MOL     -0.795228
    188 H92         0.5250    0.3720    4.1270 ho        1 MOL      0.383628
    189 H93        -0.7960   -0.2950    3.8000 ho        1 MOL      0.383628
@<TRIPOS>BOND
     1    1    2 1   
     2    1    4 1   
     3    1    5 1   
     4    1    6 1   
     5    2    3 2   
     6    2    7 1   
     7    7    8 1   
     8    7   15 1   
     9    8    9 1   
    10    8   11 1   
    11    8   16 1   
    12    9   10 2   
    13    9   19 1   
    14   11   12 1   
    15   11   17 1   
    16   11   18 1   
    17   12   13 1   
    18   12   14 1   
    19   19   20 1   
    20   19   28 1   
    21   20   21 1   
    22   20   23 1   
    23   20   29 1   
    24   21   22 2   
    25   21   41 1   
    26   23   24 1   
    27   23   30 1   
    28   23   31 1   
    29   24   25 1   
    30   24   32 1   
    31   24   33 1   
    32   25   26 1   
    33   25   34 1   
    34   25   35 1   
    35   26   27 1   
    36   26   36 1   
    37   26   37 1   
    38   27   38 1   
    39   27   39 1   
    40   27   40 1   
    41   41   42 1   
    42   41   49 1   
    43   42   43 1   
    44   42   45 1   
    45   42   50 1   
    46   43   44 2   
    47   43   53 1   
    48   45   46 1   
    49   45   51 1   
    50   45   52 1   
    51   46   47 1   
    52   46   48 1   
    53   53   54 1   
    54   53   57 1   
    55   54   55 1   
    56   54   58 1   
    57   54   59 1   
    58   55   56 2   
    59   55   60 1   
    60   60   61 1   
    61   60   68 1   
    62   61   62 1   
    63   61   64 1   
    64   61   69 1   
    65   62   63 2   
    66   62   72 1   
    67   64   65 1   
    68   64   70 1   
    69   64   71 1   
    70   65   66 1   
    71   65   67 1   
    72   72   73 1   
    73   72   76 1   
    74   73   74 1   
    75   73   77 1   
    76   73   78 1   
    77   74   75 2   
    78   74   79 1   
    79   79   80 1   
    80   79   86 1   
    81   80   81 1   
    82   80   83 1   
    83   80   87 1   
    84   81   82 2   
    85   81   93 1   
    86   83   84 1   
    87   83   85 1   
    88   83   88 1   
    89   84   90 1   
    90   84   91 1   
    91   84   92 1   
    92   85   89 1   
    93   93   94 1   
    94   93  101 1   
    95   94   95 1   
    96   94   97 1   
    97   94  102 1   
    98   95   96 2   
    99   95  112 1   
   100   97   98 1   
   101   97   99 1   
   102   97  103 1   
   103   98  100 1   
   104   98  104 1   
   105   98  105 1   
   106   99  106 1   
   107   99  107 1   
   108   99  108 1   
   109  100  109 1   
   110  100  110 1   
   111  100  111 1   
   112  112  113 1   
   113  112  119 1   
   114  113  114 1   
   115  113  116 1   
   116  113  120 1   
   117  114  115 2   
   118  114  126 1   
   119  116  117 1   
   120  116  118 1   
   121  116  121 1   
   122  117  123 1   
   123  117  124 1   
   124  117  125 1   
   125  118  122 1   
   126  126  127 1   
   127  126  133 1   
   128  127  128 1   
   129  127  130 1   
   130  127  134 1   
   131  128  129 2   
   132  128  140 1   
   133  130  131 1   
   134  130  132 1   
   135  130  135 1   
   136  131  137 1   
   137  131  138 1   
   138  131  139 1   
   139  132  136 1   
   140  140  141 1   
   141  140  149 1   
   142  141  142 1   
   143  141  144 1   
   144  141  150 1   
   145  142  143 2   
   146  142  162 1   
   147  144  145 1   
   148  144  151 1   
   149  144  152 1   
   150  145  146 1   
   151  145  153 1   
   152  145  154 1   
   153  146  147 1   
   154  146  155 1   
   155  146  156 1   
   156  147  148 1   
   157  147  157 1   
   158  147  158 1   
   159  148  159 1   
   160  148  160 1   
   161  148  161 1   
   162  162  163 1   
   163  162  171 1   
   164  163  164 1   
   165  163  166 1   
   166  163  172 1   
   167  164  165 2   
   168  164  177 1   
   169  166  167 1   
   170  166  173 1   
   171  166  174 1   
   172  167  168 1   
   173  167  175 1   
   174  167  176 1   
   175  168  169 1   
   176  168  170 1   
   177  177  178 1   
   178  177  182 1   
   179  178  179 1   
   180  178  180 1   
   181  178  181 1   
   182  184  185 1   
   183  184  186 1   
   184  187  188 1   
   185  187  189 1   
@<TRIPOS>SUBSTRUCTURE
     1 MOL         1 TEMP              0 ****  ****    0 ROOT
