@<TRIPOS>MOLECULE
MOL
  189   185     1     0     0
SMALL
resp


@<TRIPOS>ATOM
      1 C1          0.9130    2.4970    5.6620 c3        1 MOL     -0.251090
      2 C2          0.4010    2.3200    4.2120 c         1 MOL      0.687001
      3 O1          0.9930    2.8660    3.2760 o         1 MOL     -0.615307
      4 H1          1.9680    2.7730    5.6440 hc        1 MOL      0.069795
      5 H2          0.3410    3.2820    6.1570 hc        1 MOL      0.069795
      6 H3          0.7920    1.5610    6.2070 hc        1 MOL      0.069795
      7 N1         -0.7620    1.6460    4.0210 n         1 MOL     -0.649587
      8 C3         -1.4470    1.4840    2.7410 c3        1 MOL      0.323464
      9 C4         -1.8450    2.8510    2.2490 c         1 MOL      0.417385
     10 O2         -2.4910    3.6940    2.8940 o         1 MOL     -0.584409
     11 C5         -2.6480    0.5730    2.9420 c3        1 MOL     -0.351290
     12 C6         -3.4230    0.4220    1.6640 c         1 MOL      0.882606
     13 O3         -2.9880    0.7540    0.5500 o         1 MOL     -0.736094
     14 O4         -4.4790   -0.2750    1.7210 o         1 MOL     -0.736094
     15 H4         -1.2860    1.4280    4.8480 hn        1 MOL      0.338554
     16 H5         -0.7670    1.0410    2.0090 h1        1 MOL      0.003077
     17 H6         -3.2660    1.1680    3.6230 hc        1 MOL      0.076073
     18 H7         -2.4260   -0.3920    3.4010 hc        1 MOL      0.076073
     19 N2         -1.5500    3.1150    0.9920 n         1 MOL     -0.009124
     20 C7         -1.5470    4.5100    0.5020 c3        1 MOL     -0.277729
     21 C8         -2.3270    4.7180   -0.8210 c         1 MOL      0.778638
     22 O5         -2.2540    5.7290   -1.4960 o         1 MOL     -0.598461
     23 C9         -0.1390    4.9970    0.4680 c3        1 MOL      0.078744
     24 C10         0.0620    6.5300    0.3830 c3        1 MOL     -0.122207
     25 C11        -0.5740    7.2620    1.6080 c3        1 MOL     -0.065970
     26 C12        -0.2540    6.5670    2.9400 c3        1 MOL      0.194474
     27 N3         -0.4830    7.4770    4.1380 n4        1 MOL     -0.603520
     28 H8         -1.0590    2.3810    0.4950 hn        1 MOL     -0.024793
     29 H9         -2.0830    5.1320    1.2140 h1        1 MOL      0.084581
     30 H10         0.2090    4.6000   -0.4850 hc        1 MOL      0.063121
     31 H11         0.4590    4.6150    1.2980 hc        1 MOL      0.063121
     32 H12        -0.2970    6.9650   -0.5580 hc        1 MOL      0.038404
     33 H13         1.1260    6.7310    0.3280 hc        1 MOL      0.038404
     34 H14        -1.6200    7.3820    1.3260 hc        1 MOL      0.044135
     35 H15        -0.1920    8.2750    1.7380 hc        1 MOL      0.044135
     36 H16         0.8060    6.3220    2.8930 hx        1 MOL      0.051967
     37 H17        -0.7930    5.6300    3.0990 hx        1 MOL      0.051967
     38 H18         0.2360    8.1850    4.1500 hn        1 MOL      0.380566
     39 H19        -1.4330    7.8310    4.1770 hn        1 MOL      0.380566
     40 H20        -0.3680    6.8940    4.9570 hn        1 MOL      0.380566
     41 N4         -3.1580    3.7780   -1.1670 n         1 MOL     -0.640839
     42 C13        -4.2210    3.8750   -2.1560 c3        1 MOL      0.006541
     43 C14        -5.4570    3.0930   -1.5980 c         1 MOL      0.373601
     44 O6         -6.5570    3.1900   -2.1230 o         1 MOL     -0.551200
     45 C15        -3.8740    3.2510   -3.5650 c3        1 MOL     -0.117489
     46 C16        -3.1470    1.9500   -3.4560 c         1 MOL      0.811263
     47 O7         -2.3400    1.7600   -4.4000 o         1 MOL     -0.751616
     48 O8         -3.1770    1.2770   -2.4230 o         1 MOL     -0.751616
     49 H21        -2.8870    2.8640   -0.8400 hn        1 MOL      0.446690
     50 H22        -4.6390    4.8610   -2.3990 h1        1 MOL      0.117652
     51 H23        -3.3470    3.9420   -4.2170 hc        1 MOL      0.046288
     52 H24        -4.7170    3.1280   -4.2380 hc        1 MOL      0.046288
     53 N5         -5.3470    2.3880   -0.5200 n         1 MOL     -0.040719
     54 C17        -6.5360    1.8410    0.2110 c3        1 MOL     -0.378492
     55 C18        -7.1020    0.6320   -0.3670 c         1 MOL      0.683026
     56 O9         -8.1770    0.1750    0.0610 o         1 MOL     -0.635863
     57 H25        -4.4530    2.3160   -0.0560 hn        1 MOL      0.108469
     58 H26        -7.3690    2.5450    0.2620 h1        1 MOL      0.143606
     59 H27        -6.2080    1.5350    1.1980 h1        1 MOL      0.143606
     60 N6         -6.4440   -0.0900   -1.2640 n         1 MOL     -0.392169
     61 C19        -6.8430   -1.3630   -1.9320 c3        1 MOL      0.001177
     62 C20        -6.8770   -2.5650   -0.8560 c         1 MOL      0.435127
     63 O10        -7.4780   -3.5910   -1.0700 o         1 MOL     -0.563855
     64 C21        -5.9030   -1.6160   -3.0850 c3        1 MOL     -0.246775
     65 C22        -4.4860   -1.8610   -2.7080 c         1 MOL      0.723298
     66 O11        -4.1600   -1.8740   -1.4770 o         1 MOL     -0.747739
     67 O12        -3.5860   -1.6910   -3.5780 o         1 MOL     -0.747739
     68 H28        -5.4840    0.1990   -1.3680 hn        1 MOL      0.245601
     69 H29        -7.8650   -1.2350   -2.2920 h1        1 MOL      0.109030
     70 H30        -6.0140   -0.8070   -3.8060 hc        1 MOL      0.085068
     71 H31        -6.3810   -2.4190   -3.6390 hc        1 MOL      0.085068
     72 N7         -6.3600   -2.3800    0.3640 n         1 MOL     -0.039941
     73 C23        -6.4150   -3.3410    1.5400 c3        1 MOL     -0.255569
     74 C24        -5.1930   -4.2500    1.5470 c         1 MOL      0.704689
     75 O13        -5.2740   -5.3650    2.0530 o         1 MOL     -0.597997
     76 H32        -5.8040   -1.5590    0.5330 hn        1 MOL      0.187437
     77 H33        -7.3500   -3.9130    1.5640 h1        1 MOL      0.106402
     78 H34        -6.3430   -2.7100    2.4260 h1        1 MOL      0.106402
     79 N8         -4.0100   -3.7880    1.1140 n         1 MOL     -0.435179
     80 C25        -2.7850   -4.4970    1.1530 c3        1 MOL     -0.239099
     81 C26        -1.6080   -3.5260    1.1520 c         1 MOL      0.902398
     82 O14        -1.6280   -2.4600    0.5070 o         1 MOL     -0.732533
     83 C27        -2.5470   -5.4930    0.0250 c3        1 MOL      0.306821
     84 C28        -3.2400   -6.8270    0.1810 c3        1 MOL     -0.532293
     85 O15        -2.8900   -4.9550   -1.2240 oh        1 MOL     -0.613488
     86 H35        -4.0760   -2.8890    0.6590 hn        1 MOL      0.281056
     87 H36        -2.8430   -5.0440    2.0980 h1        1 MOL      0.129305
     88 H37        -1.4690   -5.6620   -0.0300 h1        1 MOL      0.050577
     89 H38        -3.7500   -5.2830   -1.4930 ho        1 MOL      0.439159
     90 H39        -2.8540   -7.2590    1.1050 hc        1 MOL      0.149844
     91 H40        -4.3230   -6.7180    0.2650 hc        1 MOL      0.149844
     92 H41        -3.0500   -7.5090   -0.6550 hc        1 MOL      0.149844
     93 N9         -0.5790   -3.8930    1.9280 n         1 MOL     -0.727770
     94 C29         0.6020   -3.0600    2.0760 c3        1 MOL      0.171223
     95 C30         1.7310   -3.5620    1.2390 c         1 MOL      0.429525
     96 O16         2.0220   -4.7350    1.2870 o         1 MOL     -0.556712
     97 C31         1.0610   -2.9410    3.5020 c3        1 MOL      0.269945
     98 C32        -0.1580   -2.8450    4.4620 c3        1 MOL      0.280738
     99 C33         1.8900   -1.6680    3.6660 c3        1 MOL     -0.609905
    100 C34         0.3250   -2.9070    5.8760 c3        1 MOL     -0.288689
    101 H42        -0.6570   -4.7970    2.3700 hn        1 MOL      0.338395
    102 H43         0.3850   -2.0460    1.7320 h1        1 MOL      0.041649
    103 H44         1.6340   -3.8050    3.8300 hc        1 MOL     -0.039402
    104 H45        -0.7780   -3.7150    4.2180 hc        1 MOL     -0.069200
    105 H46        -0.7280   -1.9510    4.2170 hc        1 MOL     -0.069200
    106 H47         2.6390   -1.5810    2.8740 hc        1 MOL      0.122661
    107 H48         1.1900   -0.8410    3.6190 hc        1 MOL      0.122661
    108 H49         2.3200   -1.6850    4.6700 hc        1 MOL      0.122661
    109 H50         0.8510   -2.0040    6.1940 hc        1 MOL      0.061275
    110 H51        -0.5010   -2.9890    6.5710 hc        1 MOL      0.061275
    111 H52         0.9280   -3.8070    5.9820 hc        1 MOL      0.061275
    112 N10         2.2480   -2.6800    0.3910 n         1 MOL     -0.026720
    113 C35         3.3420   -2.9330   -0.4880 c3        1 MOL     -0.002283
    114 C36         4.6570   -2.5940    0.1810 c         1 MOL      0.193249
    115 O17         4.7620   -1.6920    1.0560 o         1 MOL     -0.276795
    116 C37         3.2740   -2.1310   -1.7780 c3        1 MOL      0.138735
    117 C38         2.0470   -2.4610   -2.5880 c3        1 MOL     -0.355015
    118 O18         3.3080   -0.7440   -1.5840 oh        1 MOL     -0.481673
    119 H53         1.8630   -1.7490    0.3060 hn        1 MOL      0.105548
    120 H54         3.3330   -3.9930   -0.7380 h1        1 MOL      0.064137
    121 H55         4.0580   -2.5680   -2.3980 h1        1 MOL      0.050373
    122 H56         2.4810   -0.5100   -1.1550 ho        1 MOL      0.338059
    123 H57         1.8150   -1.8220   -3.4430 hc        1 MOL      0.092534
    124 H58         2.0010   -3.5000   -2.9010 hc        1 MOL      0.092534
    125 H59         1.2040   -2.3020   -1.9090 hc        1 MOL      0.092534
    126 N11         5.7840   -3.1060   -0.3490 n         1 MOL     -0.173857
    127 C39         7.1120   -2.6230    0.0690 c3        1 MOL     -0.350122
    128 C40         7.4590   -1.1770   -0.2600 c         1 MOL      0.646914
    129 O19         8.1630   -0.6060    0.5180 o         1 MOL     -0.536829
    130 C41         8.2320   -3.4330   -0.7910 c3        1 MOL      0.192678
    131 C42         8.3660   -4.9000   -0.4370 c3        1 MOL     -0.175103
    132 O20         7.9600   -3.3010   -2.1030 oh        1 MOL     -0.614278
    133 H60         5.7150   -3.7400   -1.1280 hn        1 MOL      0.268788
    134 H61         7.1970   -2.8530    1.1320 h1        1 MOL      0.195080
    135 H62         9.1710   -2.9130   -0.6040 h1        1 MOL      0.055789
    136 H63         8.7310   -3.7140   -2.4930 ho        1 MOL      0.419170
    137 H64         8.7500   -5.0230    0.5750 hc        1 MOL      0.056638
    138 H65         7.4370   -5.4760   -0.5020 hc        1 MOL      0.056638
    139 H66         9.1160   -5.4240   -1.0120 hc        1 MOL      0.056638
    140 N12         6.8150   -0.5730   -1.2510 n         1 MOL     -0.299536
    141 C43         6.9330    0.8500   -1.5750 c3        1 MOL     -0.213333
    142 C44         6.2410    1.6640   -0.5550 c         1 MOL      0.299684
    143 O21         6.6990    2.7140   -0.0310 o         1 MOL     -0.494219
    144 C45         6.3390    1.0080   -2.9610 c3        1 MOL      0.105230
    145 C46         6.4230    2.4150   -3.5820 c3        1 MOL     -0.140413
    146 C47         5.7590    2.4680   -4.9970 c3        1 MOL     -0.065784
    147 C48         4.2770    2.4120   -5.0060 c3        1 MOL      0.094197
    148 N13         3.8900    1.9540   -6.3710 n4        1 MOL     -0.421942
    149 H67         6.1990   -1.1500   -1.8040 hn        1 MOL      0.186707
    150 H68         8.0020    1.0230   -1.4490 h1        1 MOL      0.156953
    151 H69         5.2740    0.7440   -2.9640 hc        1 MOL      0.007595
    152 H70         6.8750    0.3610   -3.6460 hc        1 MOL      0.007595
    153 H71         7.5030    2.5130   -3.7240 hc        1 MOL      0.078876
    154 H72         6.0480    3.1720   -2.9050 hc        1 MOL      0.078876
    155 H73         6.0980    1.6040   -5.5840 hc        1 MOL      0.036624
    156 H74         6.1970    3.2930   -5.5480 hc        1 MOL      0.036624
    157 H75         3.8400    3.4040   -4.8860 hx        1 MOL      0.093747
    158 H76         3.9020    1.7710   -4.2130 hx        1 MOL      0.093747
    159 H77         4.3810    2.4640   -7.0890 hn        1 MOL      0.341540
    160 H78         4.0920    0.9680   -6.5020 hn        1 MOL      0.341540
    161 H79         2.9790    2.2860   -6.6730 hn        1 MOL      0.341540
    162 N14         5.0540    1.2340   -0.2400 n         1 MOL      0.044469
    163 C49         4.2960    1.9350    0.7950 c3        1 MOL     -0.174460
    164 C50         4.9130    1.7740    2.2000 c         1 MOL      0.427876
    165 O22         4.9090    2.6910    2.9420 o         1 MOL     -0.521952
    166 C51         2.8990    1.3910    0.7400 c3        1 MOL     -0.100643
    167 C52         2.0260    1.8630   -0.4710 c3        1 MOL      0.192418
    168 C53         0.7300    1.1060   -0.6710 c         1 MOL      0.490778
    169 O23        -0.3370    1.6180   -1.0050 o         1 MOL     -0.600377
    170 O24         0.7740   -0.1410   -0.5200 o         1 MOL     -0.600377
    171 H80         4.5980    0.4680   -0.7180 hn        1 MOL      0.211653
    172 H81         4.1820    2.9820    0.5040 h1        1 MOL      0.095243
    173 H82         2.4190    1.8120    1.6210 hc        1 MOL      0.066473
    174 H83         2.8850    0.3090    0.8470 hc        1 MOL      0.066473
    175 H84         2.6270    1.7980   -1.3770 hc        1 MOL     -0.086225
    176 H85         1.7950    2.9280   -0.4020 hc        1 MOL     -0.086225
    177 N15         5.5820    0.6830    2.6260 n         1 MOL     -0.007296
    178 C54         6.4220    0.5690    3.8260 c3        1 MOL     -0.341283
    179 H86         7.3920    1.0270    3.6350 h1        1 MOL      0.123045
    180 H87         5.9390    1.0800    4.6590 h1        1 MOL      0.123045
    181 H88         6.5610   -0.4830    4.0750 h1        1 MOL      0.123045
    182 H89         5.4180   -0.1490    2.0770 hn        1 MOL      0.046763
    183 Ca1        -1.8190   -0.5790   -1.3150 Ca        1 MOL      1.740795
    184 O25        -1.1720   -3.1050   -2.4900 oh        1 MOL     -0.815769
    185 H90        -1.7000   -3.8320   -2.1480 ho        1 MOL      0.390596
    186 H91        -1.1250   -3.2640   -3.4290 ho        1 MOL      0.390596
    187 O26        -0.3190   -0.2260   -3.6910 oh        1 MOL     -0.815769
    188 H92        -1.0260    0.3340   -4.0160 ho        1 MOL      0.390596
    189 H93        -0.1040   -0.7910   -4.4260 ho        1 MOL      0.390596
@<TRIPOS>BOND
     1    1    2 1   
     2    1    4 1   
     3    1    5 1   
     4    1    6 1   
     5    2    3 2   
     6    2    7 1   
     7    7    8 1   
     8    7   15 1   
     9    8    9 1   
    10    8   11 1   
    11    8   16 1   
    12    9   10 2   
    13    9   19 1   
    14   11   12 1   
    15   11   17 1   
    16   11   18 1   
    17   12   13 1   
    18   12   14 1   
    19   19   20 1   
    20   19   28 1   
    21   20   21 1   
    22   20   23 1   
    23   20   29 1   
    24   21   22 2   
    25   21   41 1   
    26   23   24 1   
    27   23   30 1   
    28   23   31 1   
    29   24   25 1   
    30   24   32 1   
    31   24   33 1   
    32   25   26 1   
    33   25   34 1   
    34   25   35 1   
    35   26   27 1   
    36   26   36 1   
    37   26   37 1   
    38   27   38 1   
    39   27   39 1   
    40   27   40 1   
    41   41   42 1   
    42   41   49 1   
    43   42   43 1   
    44   42   45 1   
    45   42   50 1   
    46   43   44 2   
    47   43   53 1   
    48   45   46 1   
    49   45   51 1   
    50   45   52 1   
    51   46   47 1   
    52   46   48 1   
    53   53   54 1   
    54   53   57 1   
    55   54   55 1   
    56   54   58 1   
    57   54   59 1   
    58   55   56 2   
    59   55   60 1   
    60   60   61 1   
    61   60   68 1   
    62   61   62 1   
    63   61   64 1   
    64   61   69 1   
    65   62   63 2   
    66   62   72 1   
    67   64   65 1   
    68   64   70 1   
    69   64   71 1   
    70   65   66 1   
    71   65   67 1   
    72   72   73 1   
    73   72   76 1   
    74   73   74 1   
    75   73   77 1   
    76   73   78 1   
    77   74   75 2   
    78   74   79 1   
    79   79   80 1   
    80   79   86 1   
    81   80   81 1   
    82   80   83 1   
    83   80   87 1   
    84   81   82 2   
    85   81   93 1   
    86   83   84 1   
    87   83   85 1   
    88   83   88 1   
    89   84   90 1   
    90   84   91 1   
    91   84   92 1   
    92   85   89 1   
    93   93   94 1   
    94   93  101 1   
    95   94   95 1   
    96   94   97 1   
    97   94  102 1   
    98   95   96 2   
    99   95  112 1   
   100   97   98 1   
   101   97   99 1   
   102   97  103 1   
   103   98  100 1   
   104   98  104 1   
   105   98  105 1   
   106   99  106 1   
   107   99  107 1   
   108   99  108 1   
   109  100  109 1   
   110  100  110 1   
   111  100  111 1   
   112  112  113 1   
   113  112  119 1   
   114  113  114 1   
   115  113  116 1   
   116  113  120 1   
   117  114  115 2   
   118  114  126 1   
   119  116  117 1   
   120  116  118 1   
   121  116  121 1   
   122  117  123 1   
   123  117  124 1   
   124  117  125 1   
   125  118  122 1   
   126  126  127 1   
   127  126  133 1   
   128  127  128 1   
   129  127  130 1   
   130  127  134 1   
   131  128  129 2   
   132  128  140 1   
   133  130  131 1   
   134  130  132 1   
   135  130  135 1   
   136  131  137 1   
   137  131  138 1   
   138  131  139 1   
   139  132  136 1   
   140  140  141 1   
   141  140  149 1   
   142  141  142 1   
   143  141  144 1   
   144  141  150 1   
   145  142  143 2   
   146  142  162 1   
   147  144  145 1   
   148  144  151 1   
   149  144  152 1   
   150  145  146 1   
   151  145  153 1   
   152  145  154 1   
   153  146  147 1   
   154  146  155 1   
   155  146  156 1   
   156  147  148 1   
   157  147  157 1   
   158  147  158 1   
   159  148  159 1   
   160  148  160 1   
   161  148  161 1   
   162  162  163 1   
   163  162  171 1   
   164  163  164 1   
   165  163  166 1   
   166  163  172 1   
   167  164  165 2   
   168  164  177 1   
   169  166  167 1   
   170  166  173 1   
   171  166  174 1   
   172  167  168 1   
   173  167  175 1   
   174  167  176 1   
   175  168  169 1   
   176  168  170 1   
   177  177  178 1   
   178  177  182 1   
   179  178  179 1   
   180  178  180 1   
   181  178  181 1   
   182  184  185 1   
   183  184  186 1   
   184  187  188 1   
   185  187  189 1   
@<TRIPOS>SUBSTRUCTURE
     1 MOL         1 TEMP              0 ****  ****    0 ROOT
