@<TRIPOS>MOLECULE
MOL
  189   185     1     0     0
SMALL
resp


@<TRIPOS>ATOM
      1 C1          0.0770    4.6700    5.5790 c3        1 MOL     -0.307676
      2 C2         -0.6210    4.5250    4.1500 c         1 MOL      0.696245
      3 O1          0.0470    4.6830    3.1030 o         1 MOL     -0.538808
      4 H1          1.0820    4.2500    5.5370 hc        1 MOL      0.069004
      5 H2          0.1350    5.7230    5.8500 hc        1 MOL      0.069004
      6 H3         -0.5090    4.1330    6.3250 hc        1 MOL      0.069004
      7 N1         -1.9570    4.3400    4.1670 n         1 MOL     -0.656835
      8 C3         -2.5790    3.8510    2.9480 c3        1 MOL      0.206832
      9 C4         -2.6360    4.8810    1.7870 c         1 MOL      0.553976
     10 O2         -3.2570    5.9220    1.8520 o         1 MOL     -0.584082
     11 C5         -3.9750    3.2590    3.2820 c3        1 MOL     -0.297192
     12 C6         -4.5280    2.4570    2.0530 c         1 MOL      0.883138
     13 O3         -5.7490    2.1470    2.0790 o         1 MOL     -0.733393
     14 O4         -3.8330    2.0890    1.0300 o         1 MOL     -0.733393
     15 H4         -2.4780    4.2770    5.0280 hn        1 MOL      0.352754
     16 H5         -1.9640    3.0670    2.5200 h1        1 MOL     -0.012228
     17 H6         -4.6910    4.0110    3.6040 hc        1 MOL      0.056059
     18 H7         -3.9150    2.6150    4.1570 hc        1 MOL      0.056059
     19 N2         -2.1460    4.4600    0.6100 n         1 MOL     -0.286725
     20 C7         -2.1260    5.2530   -0.7050 c3        1 MOL     -0.155710
     21 C8         -3.4370    5.0210   -1.5650 c         1 MOL      0.610491
     22 O5         -4.0020    5.8570   -2.2560 o         1 MOL     -0.583895
     23 C9         -0.7970    4.8460   -1.5210 c3        1 MOL      0.103579
     24 C10         0.4150    5.1120   -0.6740 c3        1 MOL      0.192217
     25 C11        -0.7450    5.6290   -2.8490 c3        1 MOL     -0.292001
     26 C12         1.7930    4.6550   -1.1460 c3        1 MOL     -0.304547
     27 H8         -1.7310    3.5370    0.6300 hn        1 MOL      0.135733
     28 H9         -2.0730    6.3320   -0.5380 h1        1 MOL      0.088801
     29 H10        -0.8960    3.7780   -1.7370 hc        1 MOL      0.072046
     30 H11         0.3450    4.6280    0.2960 hc        1 MOL     -0.021807
     31 H12         0.5280    6.1630   -0.4350 hc        1 MOL     -0.021807
     32 H13        -1.1350    6.6380   -2.7430 hc        1 MOL      0.065319
     33 H14         0.2190    5.7710   -3.3550 hc        1 MOL      0.065319
     34 H15        -1.4370    5.1910   -3.5720 hc        1 MOL      0.065319
     35 H16         2.0400    5.1940   -2.0640 hc        1 MOL      0.062750
     36 H17         2.4940    4.9490   -0.3590 hc        1 MOL      0.062750
     37 H18         1.9270    3.6020   -1.3690 hc        1 MOL      0.062750
     38 N3         -3.8460    3.7460   -1.5890 n         1 MOL     -0.442173
     39 C13        -4.6760    3.2220   -2.6550 c3        1 MOL      0.102792
     40 C14        -5.9420    2.4370   -2.2900 c         1 MOL      0.363994
     41 O6         -6.7380    2.0660   -3.1430 o         1 MOL     -0.564704
     42 C15        -3.7650    2.4430   -3.5890 c3        1 MOL     -0.240373
     43 C16        -2.9250    1.3380   -2.9470 c         1 MOL      0.776760
     44 O7         -3.2740    0.9300   -1.8240 o         1 MOL     -0.709400
     45 O8         -1.8750    0.9510   -3.5110 o         1 MOL     -0.709400
     46 H19        -3.3720    3.0960   -0.9860 hn        1 MOL      0.277921
     47 H20        -5.0340    4.0560   -3.2590 h1        1 MOL      0.091371
     48 H21        -3.1030    3.2070   -3.9870 hc        1 MOL      0.053347
     49 H22        -4.3890    2.0400   -4.3840 hc        1 MOL      0.053347
     50 N4         -6.1760    2.1730   -1.0310 n         1 MOL      0.008945
     51 C17        -7.4770    1.7680   -0.5240 c3        1 MOL     -0.426297
     52 C18        -7.7380    0.2420   -0.5700 c         1 MOL      0.603637
     53 O9         -8.8660   -0.2070   -0.3230 o         1 MOL     -0.617763
     54 H23        -5.4730    2.4630   -0.3710 hn        1 MOL      0.091246
     55 H24        -8.1950    2.2740   -1.1730 h1        1 MOL      0.166909
     56 H25        -7.4780    2.0780    0.5240 h1        1 MOL      0.166909
     57 N5         -6.8010   -0.5580   -1.0380 n         1 MOL     -0.212138
     58 C19        -7.0300   -1.8830   -1.6620 c3        1 MOL      0.093135
     59 C20        -7.1940   -3.0120   -0.5660 c         1 MOL      0.321158
     60 O10        -7.6710   -4.1100   -0.8410 o         1 MOL     -0.520252
     61 C21        -5.7970   -2.2840   -2.5670 c3        1 MOL     -0.394044
     62 C22        -4.3790   -2.1900   -1.8460 c         1 MOL      0.742161
     63 O11        -4.1580   -1.8120   -0.6700 o         1 MOL     -0.684384
     64 O12        -3.4280   -2.5290   -2.5880 o         1 MOL     -0.684384
     65 H26        -6.0080   -0.0110   -1.3540 hn        1 MOL      0.168206
     66 H27        -7.9080   -1.8250   -2.2940 h1        1 MOL      0.079825
     67 H28        -5.7290   -1.4710   -3.2940 hc        1 MOL      0.126863
     68 H29        -5.8780   -3.2760   -3.0210 hc        1 MOL      0.126863
     69 N6         -6.7620   -2.7120    0.6460 n         1 MOL     -0.048973
     70 C23        -6.7280   -3.6450    1.8070 c3        1 MOL     -0.325723
     71 C24        -5.4750   -4.5450    1.7770 c         1 MOL      0.606616
     72 O13        -5.4820   -5.7410    2.1010 o         1 MOL     -0.559861
     73 H30        -6.3010   -1.8110    0.7340 hn        1 MOL      0.055416
     74 H31        -7.6790   -4.1720    1.7300 h1        1 MOL      0.128016
     75 H32        -6.7470   -3.0350    2.7010 h1        1 MOL      0.128016
     76 N7         -4.3930   -3.8990    1.2340 n         1 MOL     -0.468149
     77 C25        -3.1090   -4.5600    1.0740 c3        1 MOL     -0.062126
     78 C26        -1.9630   -3.6090    1.5670 c         1 MOL      0.554822
     79 O14        -2.2510   -2.3970    1.5720 o         1 MOL     -0.562582
     80 C27        -2.7150   -4.9140   -0.4050 c3        1 MOL      0.207985
     81 C28        -3.8030   -5.6930   -1.1000 c3        1 MOL     -0.448626
     82 C29        -3.3730   -6.1370   -2.5290 c         1 MOL      0.678432
     83 N8         -3.1420   -5.2270   -3.4410 n         1 MOL     -0.727263
     84 O15        -3.3160   -7.2750   -2.9310 o         1 MOL     -0.625128
     85 H33        -4.5850   -3.0200    0.7640 hn        1 MOL      0.375111
     86 H34        -3.0390   -5.5530    1.5320 h1        1 MOL      0.070545
     87 H35        -1.8480   -5.5740   -0.4360 hc        1 MOL     -0.007275
     88 H36        -2.4590   -4.0380   -1.0060 hc        1 MOL     -0.007275
     89 H37        -4.6400   -5.0330   -1.3130 hc        1 MOL      0.148477
     90 H38        -4.1290   -6.5610   -0.5410 hc        1 MOL      0.148477
     91 H39        -3.3310   -4.2720   -3.1780 hn        1 MOL      0.341530
     92 H40        -2.8080   -5.4650   -4.3620 hn        1 MOL      0.341530
     93 N9         -0.8240   -4.1150    2.0020 n         1 MOL     -0.484145
     94 C30         0.4620   -3.3760    2.0850 c3        1 MOL      0.170654
     95 C31         1.3090   -3.4630    0.8620 c         1 MOL      0.350629
     96 O16         1.7290   -4.5530    0.4180 o         1 MOL     -0.550899
     97 C32         1.2720   -3.7880    3.3480 c3        1 MOL      0.361516
     98 C33         2.5010   -2.9680    3.4790 c3        1 MOL     -0.114418
     99 C34         0.3710   -3.6940    4.5910 c3        1 MOL     -0.114418
    100 H41        -0.7290   -5.1180    2.0310 hn        1 MOL      0.252466
    101 H42         0.2080   -2.3200    2.1480 h1        1 MOL      0.015531
    102 H43         1.6720   -4.7890    3.2370 hc        1 MOL     -0.081286
    103 H44         2.2040   -1.9170    3.4700 hc        1 MOL     -0.000916
    104 H45         2.9700   -3.2380    4.4270 hc        1 MOL     -0.000916
    105 H46         3.1900   -3.2260    2.6730 hc        1 MOL     -0.000916
    106 H47         1.0310   -3.8830    5.4400 hc        1 MOL     -0.000916
    107 H48        -0.1020   -2.7130    4.5920 hc        1 MOL     -0.000916
    108 H49        -0.4300   -4.4300    4.6380 hc        1 MOL     -0.000916
    109 N10         1.4730   -2.3170    0.1500 n         1 MOL     -0.156854
    110 C35         2.5500   -2.1460   -0.9170 c3        1 MOL     -0.054230
    111 C36         3.9530   -1.9980   -0.2170 c         1 MOL      0.322741
    112 O17         4.0700   -1.5880    0.9540 o         1 MOL     -0.206080
    113 C37         2.2980   -0.8850   -1.7750 c3        1 MOL      0.019773
    114 C38         2.9800   -0.8820   -3.1630 c         1 MOL      0.612501
    115 N11         2.4470   -0.0710   -4.0470 n         1 MOL     -0.771191
    116 O18         3.8820   -1.5600   -3.4610 o         1 MOL     -0.576284
    117 H50         0.8190   -1.5690    0.3030 hn        1 MOL      0.119778
    118 H51         2.6430   -3.0440   -1.5350 h1        1 MOL      0.106073
    119 H52         2.7120   -0.0720   -1.1800 hc        1 MOL      0.022470
    120 H53         1.2210   -0.7560   -1.8580 hc        1 MOL      0.022470
    121 H54         1.7330    0.6180   -3.8810 hn        1 MOL      0.387434
    122 H55         2.9720   -0.1300   -4.9120 hn        1 MOL      0.387434
    123 N12         5.1110   -2.3340   -0.8850 n         1 MOL     -0.482571
    124 C39         6.4530   -2.0340   -0.3930 c3        1 MOL      0.177022
    125 C40         6.7150   -0.5230   -0.1040 c         1 MOL      0.450674
    126 O19         7.5650   -0.1770    0.6880 o         1 MOL     -0.498785
    127 C41         7.4450   -2.5630   -1.4310 c3        1 MOL     -0.161349
    128 C42         8.8790   -2.2800   -1.0600 ca        1 MOL     -0.032447
    129 C43         9.4570   -3.1050   -0.0890 ca        1 MOL     -0.077332
    130 C44         9.6430   -1.3190   -1.7890 ca        1 MOL     -0.077332
    131 C45        10.8170   -2.9690    0.1290 ca        1 MOL     -0.322374
    132 C46        11.0350   -1.1550   -1.4810 ca        1 MOL     -0.322374
    133 C47        11.6270   -1.9880   -0.5380 ca        1 MOL      0.397329
    134 O20        12.9540   -1.9510   -0.2500 oh        1 MOL     -0.540874
    135 H56         4.9560   -2.6170   -1.8390 hn        1 MOL      0.294292
    136 H57         6.6740   -2.5920    0.5100 h1        1 MOL      0.050350
    137 H58         7.2620   -2.1050   -2.3990 hc        1 MOL      0.070110
    138 H59         7.3360   -3.6450   -1.5280 hc        1 MOL      0.070110
    139 H60         8.8780   -3.9190    0.3220 ha        1 MOL      0.131735
    140 H61         9.2010   -0.7600   -2.6010 ha        1 MOL      0.131735
    141 H62        11.2830   -3.5240    0.9330 ha        1 MOL      0.145594
    142 H63        11.6480   -0.4390   -2.0100 ha        1 MOL      0.145594
    143 H64        13.3710   -1.2590   -0.7690 ho        1 MOL      0.379571
    144 N13         5.9670    0.4240   -0.6680 n         1 MOL     -0.248010
    145 C48         6.1910    1.8710   -0.4630 c3        1 MOL     -0.010287
    146 C49         5.4430    2.3550    0.7660 c         1 MOL      0.295491
    147 O21         5.8120    3.4160    1.3240 o         1 MOL     -0.515435
    148 C50         5.6480    2.7470   -1.5830 c3        1 MOL      0.044111
    149 C51         6.3650    2.2960   -2.8740 c3        1 MOL     -0.277425
    150 C52         6.0080    3.1730   -4.0760 c         1 MOL      0.736155
    151 O22         5.1880    2.8050   -4.9350 o         1 MOL     -0.748238
    152 O23         6.5910    4.2990   -4.1120 o         1 MOL     -0.748238
    153 H65         5.2000    0.1560   -1.2770 hn        1 MOL      0.209653
    154 H66         7.2370    2.0480   -0.1870 h1        1 MOL      0.110619
    155 H67         5.7230    3.8180   -1.3730 hc        1 MOL      0.051401
    156 H68         4.6070    2.4430   -1.6700 hc        1 MOL      0.051401
    157 H69         6.0980    1.2730   -3.1580 hc        1 MOL      0.024552
    158 H70         7.4400    2.2970   -2.6980 hc        1 MOL      0.024552
    159 N14         4.3660    1.6650    1.1320 n         1 MOL     -0.086205
    160 C53         3.7090    1.6750    2.4380 c3        1 MOL      0.015363
    161 C54         4.5180    0.8560    3.5540 c         1 MOL      0.529032
    162 O24         4.7000    1.3920    4.6430 o         1 MOL     -0.586519
    163 C55         2.2480    1.1690    2.2900 c3        1 MOL     -0.008377
    164 C56         1.5490    1.8050    1.0990 c3        1 MOL     -0.142821
    165 C57         0.1280    1.2610    0.8540 c         1 MOL      0.747398
    166 O25        -0.6270    1.8950    0.0780 o         1 MOL     -0.690739
    167 O26        -0.1920    0.1300    1.2640 o         1 MOL     -0.690739
    168 H71         4.1620    0.8400    0.5870 hn        1 MOL      0.035134
    169 H72         3.6950    2.6910    2.8430 h1        1 MOL      0.066965
    170 H73         1.6450    1.3460    3.1730 hc        1 MOL     -0.018926
    171 H74         2.3170    0.0900    2.1430 hc        1 MOL     -0.018926
    172 H75         2.1170    1.7490    0.1800 hc        1 MOL      0.066548
    173 H76         1.4760    2.8650    1.3700 hc        1 MOL      0.066548
    174 N15         5.0140   -0.3800    3.3680 n         1 MOL     -0.135382
    175 C58         5.7780   -1.1490    4.4000 c3        1 MOL     -0.181484
    176 H77         6.8480   -1.0130    4.2360 h1        1 MOL      0.081169
    177 H78         5.5150   -0.7850    5.3930 h1        1 MOL      0.081169
    178 H79         5.5310   -2.2070    4.3230 h1        1 MOL      0.081169
    179 H80         4.7380   -0.8060    2.4910 hn        1 MOL     -0.013279
    180 Ca1        -2.6680   -0.0870    0.4270 Ca        1 MOL      1.712942
    181 O27        -2.3500    0.5090    3.1860 oh        1 MOL     -0.845987
    182 H81        -2.7020    0.7320    4.0530 ho        1 MOL      0.406943
    183 H82        -1.4120    0.4270    3.3260 ho        1 MOL      0.406943
    184 O28        -1.3490   -0.9960   -1.7470 oh        1 MOL     -0.845987
    185 H83        -1.3960   -0.3190   -2.4180 ho        1 MOL      0.406943
    186 H84        -2.0010   -1.6400   -2.0130 ho        1 MOL      0.406943
    187 O29        -4.8940   -0.5310    1.9110 oh        1 MOL     -0.845987
    188 H85        -5.4720    0.2300    1.8190 ho        1 MOL      0.406943
    189 H86        -5.2900   -1.0540    2.6210 ho        1 MOL      0.406943
@<TRIPOS>BOND
     1    1    2 1   
     2    1    4 1   
     3    1    5 1   
     4    1    6 1   
     5    2    3 2   
     6    2    7 1   
     7    7    8 1   
     8    7   15 1   
     9    8    9 1   
    10    8   11 1   
    11    8   16 1   
    12    9   10 2   
    13    9   19 1   
    14   11   12 1   
    15   11   17 1   
    16   11   18 1   
    17   12   13 1   
    18   12   14 1   
    19   19   20 1   
    20   19   27 1   
    21   20   21 1   
    22   20   23 1   
    23   20   28 1   
    24   21   22 2   
    25   21   38 1   
    26   23   24 1   
    27   23   25 1   
    28   23   29 1   
    29   24   26 1   
    30   24   30 1   
    31   24   31 1   
    32   25   32 1   
    33   25   33 1   
    34   25   34 1   
    35   26   35 1   
    36   26   36 1   
    37   26   37 1   
    38   38   39 1   
    39   38   46 1   
    40   39   40 1   
    41   39   42 1   
    42   39   47 1   
    43   40   41 2   
    44   40   50 1   
    45   42   43 1   
    46   42   48 1   
    47   42   49 1   
    48   43   44 1   
    49   43   45 1   
    50   50   51 1   
    51   50   54 1   
    52   51   52 1   
    53   51   55 1   
    54   51   56 1   
    55   52   53 2   
    56   52   57 1   
    57   57   58 1   
    58   57   65 1   
    59   58   59 1   
    60   58   61 1   
    61   58   66 1   
    62   59   60 2   
    63   59   69 1   
    64   61   62 1   
    65   61   67 1   
    66   61   68 1   
    67   62   63 1   
    68   62   64 1   
    69   69   70 1   
    70   69   73 1   
    71   70   71 1   
    72   70   74 1   
    73   70   75 1   
    74   71   72 2   
    75   71   76 1   
    76   76   77 1   
    77   76   85 1   
    78   77   78 1   
    79   77   80 1   
    80   77   86 1   
    81   78   79 2   
    82   78   93 1   
    83   80   81 1   
    84   80   87 1   
    85   80   88 1   
    86   81   82 1   
    87   81   89 1   
    88   81   90 1   
    89   82   83 1   
    90   82   84 2   
    91   83   91 1   
    92   83   92 1   
    93   93   94 1   
    94   93  100 1   
    95   94   95 1   
    96   94   97 1   
    97   94  101 1   
    98   95   96 2   
    99   95  109 1   
   100   97   98 1   
   101   97   99 1   
   102   97  102 1   
   103   98  103 1   
   104   98  104 1   
   105   98  105 1   
   106   99  106 1   
   107   99  107 1   
   108   99  108 1   
   109  109  110 1   
   110  109  117 1   
   111  110  111 1   
   112  110  113 1   
   113  110  118 1   
   114  111  112 2   
   115  111  123 1   
   116  113  114 1   
   117  113  119 1   
   118  113  120 1   
   119  114  115 1   
   120  114  116 2   
   121  115  121 1   
   122  115  122 1   
   123  123  124 1   
   124  123  135 1   
   125  124  125 1   
   126  124  127 1   
   127  124  136 1   
   128  125  126 2   
   129  125  144 1   
   130  127  128 1   
   131  127  137 1   
   132  127  138 1   
   133  128  129 ar  
   134  128  130 ar  
   135  129  131 ar  
   136  129  139 1   
   137  130  132 ar  
   138  130  140 1   
   139  131  133 ar  
   140  131  141 1   
   141  132  133 ar  
   142  132  142 1   
   143  133  134 1   
   144  134  143 1   
   145  144  145 1   
   146  144  153 1   
   147  145  146 1   
   148  145  148 1   
   149  145  154 1   
   150  146  147 2   
   151  146  159 1   
   152  148  149 1   
   153  148  155 1   
   154  148  156 1   
   155  149  150 1   
   156  149  157 1   
   157  149  158 1   
   158  150  151 1   
   159  150  152 1   
   160  159  160 1   
   161  159  168 1   
   162  160  161 1   
   163  160  163 1   
   164  160  169 1   
   165  161  162 2   
   166  161  174 1   
   167  163  164 1   
   168  163  170 1   
   169  163  171 1   
   170  164  165 1   
   171  164  172 1   
   172  164  173 1   
   173  165  166 1   
   174  165  167 1   
   175  174  175 1   
   176  174  179 1   
   177  175  176 1   
   178  175  177 1   
   179  175  178 1   
   180  181  182 1   
   181  181  183 1   
   182  184  185 1   
   183  184  186 1   
   184  187  188 1   
   185  187  189 1   
@<TRIPOS>SUBSTRUCTURE
     1 MOL         1 TEMP              0 ****  ****    0 ROOT
