@<TRIPOS>MOLECULE
MOL
  182   178     1     0     0
SMALL
resp


@<TRIPOS>ATOM
      1 C1          2.7950    2.7280    4.8220 c3        1 MOL     -0.216221
      2 C2          1.9600    2.5480    3.5580 c         1 MOL      0.620164
      3 O1          2.5450    2.6150    2.5120 o         1 MOL     -0.505309
      4 H1          2.3830    3.5430    5.4160 hc        1 MOL      0.056452
      5 H2          2.7760    1.8080    5.4050 hc        1 MOL      0.056452
      6 H3          3.8240    2.9630    4.5480 hc        1 MOL      0.056452
      7 N1          0.5960    2.5000    3.6450 n         1 MOL     -0.605632
      8 C3         -0.2560    2.4310    2.4310 c3        1 MOL      0.150637
      9 C4         -0.3440    3.7790    1.6680 c         1 MOL      0.243786
     10 O2         -0.9800    4.7400    2.1190 o         1 MOL     -0.524297
     11 C5         -1.6050    1.8260    2.8050 c3        1 MOL     -0.015019
     12 C6         -2.4100    1.4810    1.5600 c         1 MOL      0.647488
     13 O3         -1.9700    1.6570    0.4000 o         1 MOL     -0.711824
     14 O4         -3.5100    0.9350    1.8440 o         1 MOL     -0.711824
     15 H4          0.1540    2.5900    4.5520 hn        1 MOL      0.323251
     16 H5          0.2750    1.7700    1.7500 h1        1 MOL      0.043136
     17 H6         -2.1730    2.5010    3.4380 hc        1 MOL      0.031425
     18 H7         -1.4890    0.9080    3.3870 hc        1 MOL      0.031425
     19 N2          0.3960    3.8660    0.5690 n         1 MOL     -0.009070
     20 C7          0.7140    5.0480   -0.1820 c3        1 MOL     -0.029374
     21 C8         -0.3110    5.4840   -1.2100 c         1 MOL      0.447292
     22 O5         -0.3790    6.6570   -1.6100 o         1 MOL     -0.557079
     23 C9          2.1330    5.1070   -0.7290 c3        1 MOL     -0.125284
     24 C10         3.3060    5.2760    0.2890 c3        1 MOL      0.215431
     25 C11         3.2750    6.3940    1.4140 c3        1 MOL     -0.120251
     26 C12         2.4170    5.8680    2.6120 c3        1 MOL      0.149817
     27 N3          1.8150    6.8670    3.5130 n4        1 MOL     -0.486109
     28 H8          0.7820    2.9860    0.2860 hn        1 MOL      0.183912
     29 H9          0.6860    5.8600    0.5420 h1        1 MOL      0.014350
     30 H10         2.2850    5.9100   -1.4560 hc        1 MOL      0.044513
     31 H11         2.3130    4.1780   -1.2740 hc        1 MOL      0.044513
     32 H12         4.2710    5.4040   -0.1880 hc        1 MOL     -0.027275
     33 H13         3.3730    4.3110    0.7890 hc        1 MOL     -0.027275
     34 H14         2.9440    7.3240    0.9530 hc        1 MOL      0.046860
     35 H15         4.2890    6.5680    1.7620 hc        1 MOL      0.046860
     36 H16         3.0430    5.1840    3.1970 hx        1 MOL      0.053663
     37 H17         1.5560    5.3120    2.2490 hx        1 MOL      0.053663
     38 H18         1.0450    7.3090    3.0360 hn        1 MOL      0.349389
     39 H19         1.3470    6.4360    4.2890 hn        1 MOL      0.349389
     40 H20         2.4670    7.5930    3.7890 hn        1 MOL      0.349389
     41 N4         -1.1620    4.5510   -1.6170 n         1 MOL     -0.192562
     42 C13        -2.4060    4.9400   -2.3420 c3        1 MOL     -0.022231
     43 C14        -3.6210    4.6740   -1.3990 c         1 MOL      0.343947
     44 O6         -4.8020    5.0460   -1.7050 o         1 MOL     -0.519448
     45 C15        -2.6150    4.3020   -3.7010 c3        1 MOL     -0.205927
     46 C16        -2.7670    2.7690   -3.6550 c         1 MOL      0.749278
     47 O7         -3.1490    2.2350   -4.7440 o         1 MOL     -0.694599
     48 O8         -2.5110    2.2070   -2.5970 o         1 MOL     -0.694599
     49 H21        -0.9240    3.6060   -1.3490 hn        1 MOL      0.172518
     50 H22        -2.3180    6.0120   -2.5230 h1        1 MOL      0.136525
     51 H23        -1.8110    4.5440   -4.3990 hc        1 MOL      0.073476
     52 H24        -3.5300    4.6210   -4.1930 hc        1 MOL      0.073476
     53 N5         -3.5060    4.0660   -0.2070 n         1 MOL     -0.001069
     54 C17        -4.6660    4.0550    0.7170 c3        1 MOL     -0.247121
     55 C18        -5.7650    3.0160    0.3560 c         1 MOL      0.546657
     56 O9         -6.9330    3.2170    0.7790 o         1 MOL     -0.579095
     57 H25        -2.6410    3.5990    0.0340 hn        1 MOL      0.005779
     58 H26        -5.2200    4.9870    0.7680 h1        1 MOL      0.120455
     59 H27        -4.3070    3.7460    1.7020 h1        1 MOL      0.120455
     60 N6         -5.4100    1.8930   -0.2360 n         1 MOL     -0.243608
     61 C19        -6.3750    0.9350   -0.7860 c3        1 MOL     -0.163336
     62 C20        -6.7140   -0.2380    0.1240 c         1 MOL      0.482227
     63 O10        -7.6280   -0.9460   -0.1820 o         1 MOL     -0.507777
     64 C21        -5.8530    0.4640   -2.1400 c3        1 MOL     -0.132219
     65 C22        -4.7780   -0.5380   -1.9520 c         1 MOL      0.537909
     66 N7         -4.8470   -1.6920   -2.6280 n         1 MOL     -0.569964
     67 O11        -3.6980   -0.3600   -1.3550 o         1 MOL     -0.732555
     68 H28        -4.4250    1.7870   -0.4150 hn        1 MOL      0.334086
     69 H29        -7.3210    1.4340   -0.9810 h1        1 MOL      0.160330
     70 H30        -5.5260    1.3320   -2.7070 hc        1 MOL      0.097321
     71 H31        -6.6520   -0.0170   -2.7100 hc        1 MOL      0.097321
     72 H32        -5.5970   -1.9820   -3.2440 hn        1 MOL      0.318851
     73 H33        -4.0030   -2.2400   -2.5700 hn        1 MOL      0.318851
     74 N8         -6.1070   -0.3630    1.2840 n         1 MOL     -0.287938
     75 C23        -6.2260   -1.5160    2.1490 c3        1 MOL     -0.102694
     76 C24        -5.2010   -2.6010    2.1380 c         1 MOL      0.639015
     77 O12        -5.3360   -3.6030    2.8140 o         1 MOL     -0.544857
     78 H34        -5.2820    0.1880    1.4430 hn        1 MOL      0.239604
     79 H35        -7.2000   -1.9560    1.9450 h1        1 MOL      0.085687
     80 H36        -6.2800   -1.2570    3.2080 h1        1 MOL      0.085687
     81 N9         -4.1030   -2.3720    1.3570 n         1 MOL     -0.655832
     82 C25        -2.9640   -3.3350    1.2690 c3        1 MOL      0.021773
     83 C26        -1.5800   -2.6120    1.0170 c         1 MOL      0.661813
     84 O13        -1.5210   -1.7510    0.1070 o         1 MOL     -0.595152
     85 C27        -3.3170   -4.1150   -0.0380 c3        1 MOL      0.096720
     86 C28        -4.5520   -4.9700    0.1320 ca        1 MOL     -0.152074
     87 C29        -5.8110   -4.5130   -0.3450 ca        1 MOL     -0.085663
     88 C30        -4.3790   -6.2290    0.7020 ca        1 MOL     -0.085663
     89 C31        -6.9400   -5.3800   -0.1730 ca        1 MOL     -0.224372
     90 C32        -5.4540   -7.1380    0.7080 ca        1 MOL     -0.224372
     91 C33        -6.7000   -6.7180    0.2610 ca        1 MOL      0.320039
     92 O14        -7.7270   -7.5980    0.3420 oh        1 MOL     -0.498818
     93 H37        -4.1430   -1.4530    0.9300 hn        1 MOL      0.461607
     94 H38        -2.9890   -3.9590    2.1600 h1        1 MOL      0.109105
     95 H39        -2.4680   -4.7830   -0.1800 hc        1 MOL     -0.002629
     96 H40        -3.3180   -3.4050   -0.8670 hc        1 MOL     -0.002629
     97 H41        -5.8610   -3.5870   -0.8850 ha        1 MOL      0.101379
     98 H42        -3.4050   -6.5450    1.0490 ha        1 MOL      0.101379
     99 H43        -7.8800   -5.0600   -0.5870 ha        1 MOL      0.137965
    100 H44        -5.2990   -8.0820    1.2170 ha        1 MOL      0.137965
    101 H45        -7.5670   -8.4800    0.6850 ho        1 MOL      0.366236
    102 N10        -0.5860   -3.0290    1.7360 n         1 MOL     -0.604251
    103 C34         0.8060   -2.5790    1.7270 c3        1 MOL      0.066165
    104 C35         1.7010   -3.6200    0.9540 c         1 MOL      0.510399
    105 O15         1.8480   -4.7840    1.3650 o         1 MOL     -0.545084
    106 C36         1.4290   -2.4540    3.1370 c3        1 MOL      0.220452
    107 C37         0.4930   -2.0060    4.2880 c3        1 MOL      0.172577
    108 C38         2.7220   -1.5740    2.9470 c3        1 MOL     -0.400704
    109 C39         1.2280   -2.0600    5.6800 c3        1 MOL     -0.304970
    110 H46        -0.7590   -3.7830    2.3840 hn        1 MOL      0.308415
    111 H47         0.8710   -1.6350    1.1950 h1        1 MOL      0.049039
    112 H48         1.7690   -3.4580    3.4170 hc        1 MOL     -0.013887
    113 H49        -0.3040   -2.7570    4.3730 hc        1 MOL     -0.034888
    114 H50         0.0330   -1.0350    4.1090 hc        1 MOL     -0.034888
    115 H51         3.3530   -1.8010    3.8130 hc        1 MOL      0.084814
    116 H52         3.3080   -1.8300    2.0590 hc        1 MOL      0.084814
    117 H53         2.4660   -0.5270    3.0960 hc        1 MOL      0.084814
    118 H54         1.5630   -3.0480    5.9760 hc        1 MOL      0.076470
    119 H55         2.1370   -1.4560    5.6780 hc        1 MOL      0.076470
    120 H56         0.5170   -1.7210    6.4350 hc        1 MOL      0.076470
    121 N11         2.4210   -3.1300   -0.0590 n         1 MOL     -0.247370
    122 C40         3.4560   -3.7590   -0.8260 c3        1 MOL      0.008608
    123 C41         4.8440   -3.6190   -0.2610 c         1 MOL      0.418908
    124 O16         5.2000   -2.7080    0.4530 o         1 MOL     -0.313774
    125 C42         3.3370   -3.1830   -2.2420 c3        1 MOL     -0.066436
    126 O17         3.5170   -1.7350   -2.3020 oh        1 MOL     -0.428608
    127 H57         2.3770   -2.1580   -0.3070 hn        1 MOL      0.301771
    128 H58         3.2210   -4.8180   -0.9870 h1        1 MOL      0.059979
    129 H59         2.3660   -3.5220   -2.6010 h1        1 MOL      0.083295
    130 H60         4.1470   -3.5990   -2.8450 h1        1 MOL      0.083295
    131 H61         2.7510   -1.3000   -1.8990 ho        1 MOL      0.280881
    132 N12         5.7540   -4.5380   -0.6940 n         1 MOL     -0.477161
    133 C43         7.2030   -4.3770   -0.4600 c3        1 MOL      0.123157
    134 C44         7.6990   -3.1030   -1.1860 c         1 MOL      0.470076
    135 O18         8.3690   -2.3220   -0.5450 o         1 MOL     -0.504482
    136 C45         7.8140   -5.7030   -0.9730 c3        1 MOL     -0.356908
    137 H62         5.3820   -5.2480   -1.3110 hn        1 MOL      0.310611
    138 H63         7.4830   -4.2900    0.5920 h1        1 MOL      0.110440
    139 H64         8.9050   -5.6310   -0.9800 hc        1 MOL      0.105011
    140 H65         7.4960   -6.4940   -0.3110 hc        1 MOL      0.105011
    141 H66         7.4210   -5.9850   -1.9570 hc        1 MOL      0.105011
    142 N13         7.0980   -2.6690   -2.2780 n         1 MOL     -0.358684
    143 C46         7.3820   -1.4040   -2.9610 c3        1 MOL      0.071449
    144 C47         7.0170   -0.2000   -2.0540 c         1 MOL      0.339807
    145 O19         7.8310    0.7330   -2.0580 o         1 MOL     -0.523257
    146 C48         6.4900   -1.3960   -4.2650 c3        1 MOL     -0.282415
    147 H67         6.4150   -3.2940   -2.6720 hn        1 MOL      0.232089
    148 H68         8.4350   -1.3580   -3.1970 h1        1 MOL      0.118878
    149 H69         5.4370   -1.5990   -4.0690 hc        1 MOL      0.089612
    150 H70         6.4750   -0.4640   -4.8260 hc        1 MOL      0.089612
    151 H71         6.8800   -2.1100   -4.9930 hc        1 MOL      0.089612
    152 N14         5.9750   -0.2020   -1.2270 n         1 MOL      0.157004
    153 C49         5.5560    0.8470   -0.2800 c3        1 MOL     -0.122360
    154 C50         6.5000    0.8060    0.9630 c         1 MOL      0.564588
    155 O20         6.9880    1.8480    1.2790 o         1 MOL     -0.545251
    156 C51         4.0900    0.6730    0.0140 c3        1 MOL      0.182920
    157 C52         3.2110    1.2720   -1.0890 c3        1 MOL     -0.148194
    158 C53         1.7360    0.7710   -1.0940 c         1 MOL      0.996467
    159 O21         1.4370   -0.4460   -1.1090 o         1 MOL     -0.840740
    160 O22         0.8170    1.5800   -0.8580 o         1 MOL     -0.840740
    161 H72         5.3200   -0.9680   -1.3120 hn        1 MOL     -0.194204
    162 H73         5.7950    1.8000   -0.7460 h1        1 MOL      0.056095
    163 H74         3.8750    0.9660    1.0350 hc        1 MOL     -0.063075
    164 H75         3.8130   -0.3790    0.0190 hc        1 MOL     -0.063075
    165 H76         3.5980    1.1590   -2.1060 hc        1 MOL      0.028364
    166 H77         3.2850    2.3440   -0.8980 hc        1 MOL      0.028364
    167 N15         6.7850   -0.3870    1.5080 n         1 MOL     -0.180192
    168 C54         7.7090   -0.5230    2.6230 c3        1 MOL     -0.317358
    169 H78         7.4520    0.1990    3.3970 h1        1 MOL      0.118179
    170 H79         7.6410   -1.5310    3.0310 h1        1 MOL      0.118179
    171 H80         8.7270   -0.3390    2.2770 h1        1 MOL      0.118179
    172 H81         6.4030   -1.2600    1.1820 hn        1 MOL      0.158993
    173 Ca1        -1.1920    0.1670   -1.5860 Ca        1 MOL      1.761529
    174 O23         0.2120    0.9160   -3.8770 oh        1 MOL     -0.786646
    175 H82         1.0270    0.5050   -4.1450 ho        1 MOL      0.375254
    176 H83        -0.4600    0.5000   -4.4250 ho        1 MOL      0.375254
    177 O24        -0.4510   -2.1150   -2.7950 oh        1 MOL     -0.786646
    178 H84        -0.1210   -3.0040   -2.6480 ho        1 MOL      0.375254
    179 H85        -0.2940   -1.9500   -3.7190 ho        1 MOL      0.375254
    180 O25        -2.5980   -0.2400   -4.1650 oh        1 MOL     -0.786646
    181 H86        -2.7020   -0.5860   -5.0460 ho        1 MOL      0.375254
    182 H87        -2.7240    0.7030   -4.2570 ho        1 MOL      0.375254
@<TRIPOS>BOND
     1    1    2 1   
     2    1    4 1   
     3    1    5 1   
     4    1    6 1   
     5    2    3 2   
     6    2    7 1   
     7    7    8 1   
     8    7   15 1   
     9    8    9 1   
    10    8   11 1   
    11    8   16 1   
    12    9   10 2   
    13    9   19 1   
    14   11   12 1   
    15   11   17 1   
    16   11   18 1   
    17   12   13 1   
    18   12   14 1   
    19   19   20 1   
    20   19   28 1   
    21   20   21 1   
    22   20   23 1   
    23   20   29 1   
    24   21   22 2   
    25   21   41 1   
    26   23   24 1   
    27   23   30 1   
    28   23   31 1   
    29   24   25 1   
    30   24   32 1   
    31   24   33 1   
    32   25   26 1   
    33   25   34 1   
    34   25   35 1   
    35   26   27 1   
    36   26   36 1   
    37   26   37 1   
    38   27   38 1   
    39   27   39 1   
    40   27   40 1   
    41   41   42 1   
    42   41   49 1   
    43   42   43 1   
    44   42   45 1   
    45   42   50 1   
    46   43   44 2   
    47   43   53 1   
    48   45   46 1   
    49   45   51 1   
    50   45   52 1   
    51   46   47 1   
    52   46   48 1   
    53   53   54 1   
    54   53   57 1   
    55   54   55 1   
    56   54   58 1   
    57   54   59 1   
    58   55   56 2   
    59   55   60 1   
    60   60   61 1   
    61   60   68 1   
    62   61   62 1   
    63   61   64 1   
    64   61   69 1   
    65   62   63 2   
    66   62   74 1   
    67   64   65 1   
    68   64   70 1   
    69   64   71 1   
    70   65   66 1   
    71   65   67 2   
    72   66   72 1   
    73   66   73 1   
    74   74   75 1   
    75   74   78 1   
    76   75   76 1   
    77   75   79 1   
    78   75   80 1   
    79   76   77 2   
    80   76   81 1   
    81   81   82 1   
    82   81   93 1   
    83   82   83 1   
    84   82   85 1   
    85   82   94 1   
    86   83   84 2   
    87   83  102 1   
    88   85   86 1   
    89   85   95 1   
    90   85   96 1   
    91   86   87 ar  
    92   86   88 ar  
    93   87   89 ar  
    94   87   97 1   
    95   88   90 ar  
    96   88   98 1   
    97   89   91 ar  
    98   89   99 1   
    99   90   91 ar  
   100   90  100 1   
   101   91   92 1   
   102   92  101 1   
   103  102  103 1   
   104  102  110 1   
   105  103  104 1   
   106  103  106 1   
   107  103  111 1   
   108  104  105 2   
   109  104  121 1   
   110  106  107 1   
   111  106  108 1   
   112  106  112 1   
   113  107  109 1   
   114  107  113 1   
   115  107  114 1   
   116  108  115 1   
   117  108  116 1   
   118  108  117 1   
   119  109  118 1   
   120  109  119 1   
   121  109  120 1   
   122  121  122 1   
   123  121  127 1   
   124  122  123 1   
   125  122  125 1   
   126  122  128 1   
   127  123  124 2   
   128  123  132 1   
   129  125  126 1   
   130  125  129 1   
   131  125  130 1   
   132  126  131 1   
   133  132  133 1   
   134  132  137 1   
   135  133  134 1   
   136  133  136 1   
   137  133  138 1   
   138  134  135 2   
   139  134  142 1   
   140  136  139 1   
   141  136  140 1   
   142  136  141 1   
   143  142  143 1   
   144  142  147 1   
   145  143  144 1   
   146  143  146 1   
   147  143  148 1   
   148  144  145 2   
   149  144  152 1   
   150  146  149 1   
   151  146  150 1   
   152  146  151 1   
   153  152  153 1   
   154  152  161 1   
   155  153  154 1   
   156  153  156 1   
   157  153  162 1   
   158  154  155 2   
   159  154  167 1   
   160  156  157 1   
   161  156  163 1   
   162  156  164 1   
   163  157  158 1   
   164  157  165 1   
   165  157  166 1   
   166  158  159 1   
   167  158  160 1   
   168  167  168 1   
   169  167  172 1   
   170  168  169 1   
   171  168  170 1   
   172  168  171 1   
   173  174  175 1   
   174  174  176 1   
   175  177  178 1   
   176  177  179 1   
   177  180  181 1   
   178  180  182 1   
@<TRIPOS>SUBSTRUCTURE
     1 MOL         1 TEMP              0 ****  ****    0 ROOT
