@<TRIPOS>MOLECULE
MOL
  189   185     1     0     0
SMALL
resp


@<TRIPOS>ATOM
      1 C1         -0.1160    2.4090   -5.6750 c3        1 MOL     -0.345716
      2 C2          0.4240    2.3280   -4.2310 c         1 MOL      0.711972
      3 O1         -0.2640    2.7960   -3.3090 o         1 MOL     -0.625096
      4 H1         -0.9100    3.1540   -5.7240 hc        1 MOL      0.085989
      5 H2          0.6900    2.6940   -6.3500 hc        1 MOL      0.085989
      6 H3         -0.5120    1.4370   -5.9710 hc        1 MOL      0.085989
      7 N1          1.4970    1.6000   -4.0380 n         1 MOL     -0.521352
      8 C3          2.1080    1.4120   -2.7460 c3        1 MOL      0.040433
      9 C4          2.6550    2.6360   -2.0060 c         1 MOL      0.511041
     10 O2          3.5290    3.3050   -2.5300 o         1 MOL     -0.541451
     11 C5          3.1610    0.3360   -2.9500 c3        1 MOL     -0.209493
     12 C6          3.6780   -0.0860   -1.6130 c         1 MOL      0.753292
     13 O3          4.8190   -0.5920   -1.6200 o         1 MOL     -0.704914
     14 O4          3.0010   -0.0440   -0.5580 o         1 MOL     -0.704914
     15 H4          1.9220    1.1200   -4.8200 hn        1 MOL      0.309482
     16 H5          1.2740    1.0290   -2.1630 h1        1 MOL      0.030108
     17 H6          3.9950    0.7240   -3.5240 hc        1 MOL      0.073972
     18 H7          2.7330   -0.5520   -3.4230 hc        1 MOL      0.073972
     19 N2          1.9610    3.1780   -1.0100 n         1 MOL     -0.098102
     20 C7          2.0750    4.5780   -0.4630 c3        1 MOL     -0.063233
     21 C8          3.2280    4.8210    0.4540 c         1 MOL      0.448112
     22 O5          3.9920    5.7830    0.3320 o         1 MOL     -0.546805
     23 C9          0.6770    5.0130    0.1000 c3        1 MOL     -0.292291
     24 C10         0.6090    6.4610    0.5360 c3        1 MOL     -0.033596
     25 C11         0.9440    7.3940   -0.6660 c3        1 MOL      0.148559
     26 C12         0.4120    8.7470   -0.2150 c3        1 MOL     -0.036363
     27 N3          1.2920    9.8440   -0.6220 n4        1 MOL     -0.336490
     28 H8          1.3090    2.5680   -0.5410 hn        1 MOL      0.112570
     29 H9          2.3370    5.2090   -1.3110 h1        1 MOL      0.078886
     30 H10         0.4690    4.5300    1.0570 hc        1 MOL      0.159787
     31 H11        -0.0710    4.8460   -0.6800 hc        1 MOL      0.159787
     32 H12         1.2140    6.7240    1.3990 hc        1 MOL      0.022757
     33 H13        -0.4290    6.6410    0.8260 hc        1 MOL      0.022757
     34 H14         0.3500    7.0460   -1.5180 hc        1 MOL      0.007662
     35 H15         1.9930    7.4050   -0.9530 hc        1 MOL      0.007662
     36 H16         0.1040    8.7420    0.8330 hx        1 MOL      0.086820
     37 H17        -0.5390    8.7930   -0.7530 hx        1 MOL      0.086820
     38 H18         0.8860   10.7530   -0.4690 hn        1 MOL      0.321542
     39 H19         2.1920    9.9190   -0.1870 hn        1 MOL      0.321542
     40 H20         1.5610    9.7930   -1.6000 hn        1 MOL      0.321542
     41 N4          3.4170    3.8020    1.3230 n         1 MOL     -0.278720
     42 C13         4.6030    3.5870    2.1760 c3        1 MOL      0.017245
     43 C14         5.7060    2.7980    1.4070 c         1 MOL      0.468758
     44 O6          6.8420    2.8870    1.8810 o         1 MOL     -0.572119
     45 C15         4.1920    2.8970    3.4820 c3        1 MOL     -0.236351
     46 C16         3.3720    1.5710    3.3920 c         1 MOL      0.746188
     47 O7          3.3570    1.0620    2.2300 o         1 MOL     -0.704721
     48 O8          2.9630    0.9620    4.4410 o         1 MOL     -0.704721
     49 H21         2.6070    3.2130    1.3700 hn        1 MOL      0.222965
     50 H22         4.9840    4.5660    2.4610 h1        1 MOL      0.079620
     51 H23         3.5960    3.5890    4.0810 hc        1 MOL      0.072800
     52 H24         5.0730    2.7150    4.0960 hc        1 MOL      0.072800
     53 N5          5.4950    2.0830    0.2990 n         1 MOL      0.009966
     54 C17         6.5880    1.5030   -0.5240 c3        1 MOL     -0.291996
     55 C18         7.1080    0.2230    0.1300 c         1 MOL      0.638620
     56 O9          8.2460   -0.1430   -0.1210 o         1 MOL     -0.589213
     57 H25         4.5260    1.9320    0.0890 hn        1 MOL     -0.053598
     58 H26         7.2680    2.3490   -0.5710 h1        1 MOL      0.134040
     59 H27         6.1880    1.2860   -1.5150 h1        1 MOL      0.134040
     60 N6          6.3450   -0.3970    1.0240 n         1 MOL     -0.282166
     61 C19         6.6650   -1.6790    1.7260 c3        1 MOL     -0.040631
     62 C20         6.7000   -2.8890    0.7650 c         1 MOL      0.389232
     63 O10         7.0760   -4.0210    1.1800 o         1 MOL     -0.522661
     64 C21         5.6520   -1.8610    2.9560 c3        1 MOL     -0.170212
     65 C22         4.3540   -2.5380    2.6040 c         1 MOL      0.660842
     66 O11         3.8170   -3.2190    3.4730 o         1 MOL     -0.653613
     67 O12         3.8420   -2.3630    1.4870 o         1 MOL     -0.653613
     68 H28         5.4190   -0.0230    1.0760 hn        1 MOL      0.180663
     69 H29         7.7060   -1.5360    2.0160 h1        1 MOL      0.092762
     70 H30         5.4340   -0.8440    3.2750 hc        1 MOL      0.081050
     71 H31         6.1020   -2.3580    3.8160 hc        1 MOL      0.081050
     72 N7          6.2210   -2.7260   -0.4440 n         1 MOL     -0.112087
     73 C23         6.1410   -3.7870   -1.4370 c3        1 MOL     -0.236339
     74 C24         4.8400   -4.5830   -1.5350 c         1 MOL      0.617764
     75 O13         4.7370   -5.6590   -2.1500 o         1 MOL     -0.601818
     76 H32         5.8560   -1.8050   -0.6560 hn        1 MOL      0.223896
     77 H33         6.9610   -4.4970   -1.3360 h1        1 MOL      0.103840
     78 H34         6.3540   -3.2690   -2.3670 h1        1 MOL      0.103840
     79 N8          3.7890   -4.1030   -0.9050 n         1 MOL     -0.449953
     80 C25         2.4420   -4.7660   -0.8730 c3        1 MOL     -0.087258
     81 C26         1.2790   -3.6950   -0.7900 c         1 MOL      0.490968
     82 O14         1.4450   -2.7300   -0.0660 o         1 MOL     -0.632642
     83 C27         2.2870   -5.5670    0.4370 c3        1 MOL      0.562917
     84 C28         2.3810   -7.1010    0.1500 c3        1 MOL     -0.249308
     85 O15         3.0170   -5.1550    1.5850 oh        1 MOL     -0.597680
     86 H35         3.8670   -3.3170   -0.2890 hn        1 MOL      0.413976
     87 H36         2.3180   -5.4570   -1.7140 h1        1 MOL      0.085184
     88 H37         1.2250   -5.4800    0.6600 h1        1 MOL     -0.117976
     89 H38         3.0310   -4.2020    1.7000 ho        1 MOL      0.349669
     90 H39         1.5240   -7.4240   -0.4340 hc        1 MOL      0.048972
     91 H40         3.2640   -7.3860   -0.4180 hc        1 MOL      0.048972
     92 H41         2.3460   -7.5680    1.1390 hc        1 MOL      0.048972
     93 N9          0.3770   -3.7430   -1.8060 n         1 MOL     -0.443241
     94 C29        -0.6780   -2.7820   -1.9720 c3        1 MOL      0.313320
     95 C30        -1.9420   -3.2040   -1.1180 c         1 MOL      0.383739
     96 O16        -2.4820   -4.2660   -1.4880 o         1 MOL     -0.566332
     97 C31        -1.0210   -2.5830   -3.4250 c3        1 MOL     -0.099036
     98 C32         0.1270   -2.0600   -4.2860 c3        1 MOL      0.205399
     99 C33        -2.4230   -1.8330   -3.5490 c3        1 MOL     -0.057826
    100 C34         0.1270   -2.4230   -5.7850 c3        1 MOL     -0.299038
    101 H42         0.3080   -4.6190   -2.2950 hn        1 MOL      0.260978
    102 H43        -0.4240   -1.7990   -1.5770 h1        1 MOL      0.025628
    103 H44        -1.2520   -3.5790   -3.7990 hc        1 MOL      0.033933
    104 H45         1.0810   -2.2650   -3.8010 hc        1 MOL     -0.027596
    105 H46         0.1370   -0.9720   -4.3000 hc        1 MOL     -0.027596
    106 H47        -2.6180   -0.9240   -2.9780 hc        1 MOL      0.009422
    107 H48        -2.4160   -1.5650   -4.6050 hc        1 MOL      0.009422
    108 H49        -3.2700   -2.5190   -3.4890 hc        1 MOL      0.009422
    109 H50        -0.8260   -2.2590   -6.2820 hc        1 MOL      0.068067
    110 H51         0.8220   -1.7900   -6.3410 hc        1 MOL      0.068067
    111 H52         0.3750   -3.4840   -5.7600 hc        1 MOL      0.068067
    112 N10        -2.4050   -2.4700   -0.1200 n         1 MOL     -0.071836
    113 C35        -3.6540   -2.5580    0.6630 c3        1 MOL     -0.005938
    114 C36        -4.8960   -2.2010   -0.2020 c         1 MOL      0.306014
    115 O17        -4.8280   -1.4120   -1.1410 o         1 MOL     -0.287206
    116 C37        -3.6920   -1.8340    1.9690 c3        1 MOL      0.005783
    117 C38        -2.4740   -2.1540    2.8120 c3        1 MOL     -0.292486
    118 O18        -3.8280   -0.4150    1.8700 oh        1 MOL     -0.293726
    119 H53        -1.8970   -1.6070   -0.0000 hn        1 MOL     -0.003679
    120 H54        -3.7650   -3.6140    0.9210 h1        1 MOL      0.089895
    121 H55        -4.5730   -2.0980    2.5520 h1        1 MOL      0.062264
    122 H56        -3.5480    0.0740    2.6500 ho        1 MOL      0.351533
    123 H57        -2.2690   -3.2190    2.7100 hc        1 MOL      0.095072
    124 H58        -1.6460   -1.5650    2.4270 hc        1 MOL      0.095072
    125 H59        -2.7210   -1.8720    3.8410 hc        1 MOL      0.095072
    126 N11        -6.1050   -2.6260    0.2170 n         1 MOL     -0.241967
    127 C39        -7.3330   -2.2100   -0.5080 c3        1 MOL     -0.182196
    128 C40        -7.3850   -0.6550   -0.4650 c         1 MOL      0.511367
    129 O19        -7.7510   -0.1470   -1.5720 o         1 MOL     -0.495952
    130 C41        -8.5540   -2.8270    0.1810 c3        1 MOL      0.388506
    131 C42        -8.7530   -4.3230   -0.1440 c3        1 MOL     -0.433151
    132 O20        -8.5430   -2.7070    1.6150 oh        1 MOL     -0.615279
    133 H60        -6.1690   -3.3540    0.9090 hn        1 MOL      0.249922
    134 H61        -7.3880   -2.4170   -1.5830 h1        1 MOL      0.143671
    135 H62        -9.4230   -2.3010   -0.2030 h1        1 MOL      0.011273
    136 H63        -9.4960   -2.7590    1.7060 ho        1 MOL      0.374630
    137 H64        -9.7830   -4.6420    0.0460 hc        1 MOL      0.119537
    138 H65        -8.5320   -4.3920   -1.2080 hc        1 MOL      0.119537
    139 H66        -8.1600   -4.9710    0.4920 hc        1 MOL      0.119537
    140 N12        -7.0340   -0.0170    0.6740 n         1 MOL     -0.482035
    141 C43        -7.1320    1.4170    0.6960 c3        1 MOL     -0.053957
    142 C44        -6.1270    2.0860   -0.2570 c         1 MOL      0.307985
    143 O21        -6.4130    3.0890   -0.8780 o         1 MOL     -0.453359
    144 C45        -6.7940    1.6860    2.1630 c3        1 MOL      0.101533
    145 C46        -7.6770    0.9590    3.1930 c3        1 MOL      0.021533
    146 C47        -7.5490    1.4990    4.6110 c3        1 MOL     -0.092654
    147 C48        -6.3450    0.9380    5.3640 c3        1 MOL      0.093310
    148 N13        -6.5030    1.1090    6.8340 n4        1 MOL     -0.394477
    149 H67        -6.7290   -0.5240    1.4910 hn        1 MOL      0.259104
    150 H68        -8.1240    1.7820    0.4290 h1        1 MOL      0.140366
    151 H69        -6.7730    2.7400    2.4190 hc        1 MOL     -0.014396
    152 H70        -5.7800    1.3230    2.3520 hc        1 MOL     -0.014396
    153 H71        -7.4180   -0.1030    3.2530 hc        1 MOL      0.008884
    154 H72        -8.6960    1.1410    2.8720 hc        1 MOL      0.008884
    155 H73        -8.4550    1.0890    5.0640 hc        1 MOL      0.053075
    156 H74        -7.6800    2.5840    4.5510 hc        1 MOL      0.053075
    157 H75        -5.4670    1.4050    4.9240 hx        1 MOL      0.053073
    158 H76        -6.2150   -0.1200    5.1490 hx        1 MOL      0.053073
    159 H77        -6.6910    2.0900    7.0040 hn        1 MOL      0.320333
    160 H78        -7.3120    0.5640    7.0500 hn        1 MOL      0.320333
    161 H79        -5.6990    0.7450    7.3420 hn        1 MOL      0.320333
    162 N14        -4.9650    1.3860   -0.5000 n         1 MOL      0.006803
    163 C49        -3.9780    1.9220   -1.3960 c3        1 MOL     -0.051502
    164 C50        -4.4700    1.9680   -2.8630 c         1 MOL      0.356328
    165 O22        -4.4460    3.0590   -3.4650 o         1 MOL     -0.521646
    166 C51        -2.5890    1.2090   -1.1800 c3        1 MOL      0.430917
    167 C52        -1.9050    1.8360    0.0440 c3        1 MOL     -0.300145
    168 C53        -0.5770    1.0260    0.4750 c         1 MOL      0.803404
    169 O23        -0.4890   -0.1810    0.1860 o         1 MOL     -0.691124
    170 O24         0.3720    1.5450    1.0570 o         1 MOL     -0.691124
    171 H80        -4.6590    0.6430    0.1010 hn        1 MOL     -0.014291
    172 H81        -3.8600    2.9930   -1.2310 h1        1 MOL      0.054565
    173 H82        -1.9490    1.4110   -2.0380 hc        1 MOL     -0.064470
    174 H83        -2.7090    0.1360   -0.9930 hc        1 MOL     -0.064470
    175 H84        -2.5230    1.6210    0.9220 hc        1 MOL     -0.022115
    176 H85        -1.7060    2.8940   -0.0930 hc        1 MOL     -0.022115
    177 N15        -5.0660    0.8500   -3.2550 n         1 MOL      0.023340
    178 C54        -5.6530    0.6980   -4.6270 c3        1 MOL     -0.435847
    179 H86        -6.4230    1.4560   -4.7790 h1        1 MOL      0.147085
    180 H87        -4.8690    0.8230   -5.3740 h1        1 MOL      0.147085
    181 H88        -6.0960   -0.2930   -4.7260 h1        1 MOL      0.147085
    182 H89        -4.7860    0.0340   -2.7320 hn        1 MOL      0.096275
    183 Ca1         1.7740   -0.6950    1.5530 Ca        1 MOL      1.715970
    184 O25         1.2400   -2.5380    3.1550 oh        1 MOL     -0.845954
    185 H90         0.5570   -3.0590    3.5750 ho        1 MOL      0.382692
    186 H91         2.0510   -2.9990    3.3640 ho        1 MOL      0.382692
    187 O26         0.4430    0.3400    3.9040 oh        1 MOL     -0.845954
    188 H92        -0.1620   -0.1750    4.4420 ho        1 MOL      0.382692
    189 H93         1.2790    0.2980    4.3830 ho        1 MOL      0.382692
@<TRIPOS>BOND
     1    1    2 1   
     2    1    4 1   
     3    1    5 1   
     4    1    6 1   
     5    2    3 2   
     6    2    7 1   
     7    7    8 1   
     8    7   15 1   
     9    8    9 1   
    10    8   11 1   
    11    8   16 1   
    12    9   10 2   
    13    9   19 1   
    14   11   12 1   
    15   11   17 1   
    16   11   18 1   
    17   12   13 1   
    18   12   14 1   
    19   19   20 1   
    20   19   28 1   
    21   20   21 1   
    22   20   23 1   
    23   20   29 1   
    24   21   22 2   
    25   21   41 1   
    26   23   24 1   
    27   23   30 1   
    28   23   31 1   
    29   24   25 1   
    30   24   32 1   
    31   24   33 1   
    32   25   26 1   
    33   25   34 1   
    34   25   35 1   
    35   26   27 1   
    36   26   36 1   
    37   26   37 1   
    38   27   38 1   
    39   27   39 1   
    40   27   40 1   
    41   41   42 1   
    42   41   49 1   
    43   42   43 1   
    44   42   45 1   
    45   42   50 1   
    46   43   44 2   
    47   43   53 1   
    48   45   46 1   
    49   45   51 1   
    50   45   52 1   
    51   46   47 1   
    52   46   48 1   
    53   53   54 1   
    54   53   57 1   
    55   54   55 1   
    56   54   58 1   
    57   54   59 1   
    58   55   56 2   
    59   55   60 1   
    60   60   61 1   
    61   60   68 1   
    62   61   62 1   
    63   61   64 1   
    64   61   69 1   
    65   62   63 2   
    66   62   72 1   
    67   64   65 1   
    68   64   70 1   
    69   64   71 1   
    70   65   66 1   
    71   65   67 1   
    72   72   73 1   
    73   72   76 1   
    74   73   74 1   
    75   73   77 1   
    76   73   78 1   
    77   74   75 2   
    78   74   79 1   
    79   79   80 1   
    80   79   86 1   
    81   80   81 1   
    82   80   83 1   
    83   80   87 1   
    84   81   82 2   
    85   81   93 1   
    86   83   84 1   
    87   83   85 1   
    88   83   88 1   
    89   84   90 1   
    90   84   91 1   
    91   84   92 1   
    92   85   89 1   
    93   93   94 1   
    94   93  101 1   
    95   94   95 1   
    96   94   97 1   
    97   94  102 1   
    98   95   96 2   
    99   95  112 1   
   100   97   98 1   
   101   97   99 1   
   102   97  103 1   
   103   98  100 1   
   104   98  104 1   
   105   98  105 1   
   106   99  106 1   
   107   99  107 1   
   108   99  108 1   
   109  100  109 1   
   110  100  110 1   
   111  100  111 1   
   112  112  113 1   
   113  112  119 1   
   114  113  114 1   
   115  113  116 1   
   116  113  120 1   
   117  114  115 2   
   118  114  126 1   
   119  116  117 1   
   120  116  118 1   
   121  116  121 1   
   122  117  123 1   
   123  117  124 1   
   124  117  125 1   
   125  118  122 1   
   126  126  127 1   
   127  126  133 1   
   128  127  128 1   
   129  127  130 1   
   130  127  134 1   
   131  128  129 2   
   132  128  140 1   
   133  130  131 1   
   134  130  132 1   
   135  130  135 1   
   136  131  137 1   
   137  131  138 1   
   138  131  139 1   
   139  132  136 1   
   140  140  141 1   
   141  140  149 1   
   142  141  142 1   
   143  141  144 1   
   144  141  150 1   
   145  142  143 2   
   146  142  162 1   
   147  144  145 1   
   148  144  151 1   
   149  144  152 1   
   150  145  146 1   
   151  145  153 1   
   152  145  154 1   
   153  146  147 1   
   154  146  155 1   
   155  146  156 1   
   156  147  148 1   
   157  147  157 1   
   158  147  158 1   
   159  148  159 1   
   160  148  160 1   
   161  148  161 1   
   162  162  163 1   
   163  162  171 1   
   164  163  164 1   
   165  163  166 1   
   166  163  172 1   
   167  164  165 2   
   168  164  177 1   
   169  166  167 1   
   170  166  173 1   
   171  166  174 1   
   172  167  168 1   
   173  167  175 1   
   174  167  176 1   
   175  168  169 1   
   176  168  170 1   
   177  177  178 1   
   178  177  182 1   
   179  178  179 1   
   180  178  180 1   
   181  178  181 1   
   182  184  185 1   
   183  184  186 1   
   184  187  188 1   
   185  187  189 1   
@<TRIPOS>SUBSTRUCTURE
     1 MOL         1 TEMP              0 ****  ****    0 ROOT
