@<TRIPOS>MOLECULE
MOL
  179   176     1     0     0
SMALL
resp


@<TRIPOS>ATOM
      1 C1          0.6370    3.4340    5.6790 c3        1 MOL     -0.328776
      2 C2          0.0840    3.2250    4.2200 c         1 MOL      0.617906
      3 O1          0.8480    3.3880    3.2800 o         1 MOL     -0.492342
      4 H1         -0.1870    3.3740    6.3910 hc        1 MOL      0.085276
      5 H2          1.3700    2.6600    5.9050 hc        1 MOL      0.085276
      6 H3          1.1080    4.4140    5.7520 hc        1 MOL      0.085276
      7 N1         -1.2270    2.8830    4.1560 n         1 MOL     -0.481338
      8 C3         -1.7220    2.3300    2.9450 c3        1 MOL      0.019655
      9 C4         -2.1360    3.4330    1.9500 c         1 MOL      0.457986
     10 O2         -3.2430    3.9620    1.9590 o         1 MOL     -0.462153
     11 C5         -2.8900    1.3870    3.2910 c3        1 MOL     -0.024281
     12 C6         -3.5050    0.6330    2.1260 c         1 MOL      0.638157
     13 O3         -4.6440    0.1220    2.3040 o         1 MOL     -0.658982
     14 O4         -2.9000    0.6630    1.0040 o         1 MOL     -0.658982
     15 H4         -1.7390    2.7960    5.0230 hn        1 MOL      0.320925
     16 H5         -0.9390    1.7350    2.4690 h1        1 MOL      0.014774
     17 H6         -3.6880    1.9360    3.7870 hc        1 MOL      0.021122
     18 H7         -2.6210    0.6190    4.0160 hc        1 MOL      0.021122
     19 N2         -1.1340    3.9030    1.1760 n         1 MOL     -0.131213
     20 C7         -1.1460    5.2160    0.4610 c3        1 MOL      0.044698
     21 C8         -2.2290    5.3350   -0.5660 c         1 MOL      0.443049
     22 O5         -2.5480    6.5390   -0.8130 o         1 MOL     -0.567254
     23 C9          0.2750    5.2390   -0.1500 c3        1 MOL     -0.043450
     24 C10         0.8900    6.6270   -0.3760 c3        1 MOL     -0.031407
     25 C11         2.2450    6.6350   -1.1930 c3        1 MOL     -0.247088
     26 C12         1.8430    6.3360   -2.6890 c3        1 MOL      0.207968
     27 N3          2.8270    6.6660   -3.7170 n4        1 MOL     -0.370225
     28 H8         -0.2380    3.5770    1.4890 hn        1 MOL      0.087100
     29 H9         -1.2600    6.0410    1.1570 h1        1 MOL      0.046211
     30 H10         0.1420    4.8460   -1.1540 hc        1 MOL      0.055777
     31 H11         0.9410    4.6260    0.4620 hc        1 MOL      0.055777
     32 H12         1.1140    7.0220    0.6080 hc        1 MOL      0.047592
     33 H13         0.1340    7.2490   -0.8550 hc        1 MOL      0.047592
     34 H14         2.8710    5.8260   -0.8360 hc        1 MOL      0.091886
     35 H15         2.6450    7.6240   -0.9660 hc        1 MOL      0.091886
     36 H16         0.9240    6.8730   -2.9490 hx        1 MOL      0.028437
     37 H17         1.4510    5.3200   -2.7600 hx        1 MOL      0.028437
     38 H18         3.0290    7.6330   -3.5430 hn        1 MOL      0.327435
     39 H19         3.6700    6.1110   -3.7920 hn        1 MOL      0.327435
     40 H20         2.3170    6.7760   -4.5790 hn        1 MOL      0.327435
     41 N4         -2.5820    4.2690   -1.2430 n         1 MOL     -0.238595
     42 C13        -3.7510    4.1840   -2.1630 c3        1 MOL      0.098431
     43 C14        -5.0120    3.5910   -1.4680 c         1 MOL      0.336500
     44 O6         -6.1660    3.6480   -1.9400 o         1 MOL     -0.554984
     45 C15        -3.3470    3.3640   -3.4480 c3        1 MOL     -0.335099
     46 C16        -2.7250    1.9920   -3.2620 c         1 MOL      0.794232
     47 O7         -2.5020    1.5700   -2.1100 o         1 MOL     -0.706040
     48 O8         -2.4550    1.2850   -4.2670 o         1 MOL     -0.706040
     49 H21        -2.0050    3.4640   -1.0640 hn        1 MOL      0.180188
     50 H22        -3.9090    5.2360   -2.4230 h1        1 MOL      0.074221
     51 H23        -2.6050    3.8860   -4.0540 hc        1 MOL      0.090102
     52 H24        -4.2820    3.2980   -3.9890 hc        1 MOL      0.090102
     53 N5         -4.8330    3.1000   -0.2890 n         1 MOL      0.275542
     54 C17        -5.8220    2.6430    0.6280 c3        1 MOL     -0.179018
     55 C18        -6.6120    1.4130    0.0680 c         1 MOL      0.508823
     56 O9         -7.7980    1.2100    0.3410 o         1 MOL     -0.558450
     57 H25        -3.9630    3.0450    0.2130 hn        1 MOL     -0.250979
     58 H26        -6.5460    3.4480    0.7140 h1        1 MOL      0.094974
     59 H27        -5.4160    2.3680    1.6040 h1        1 MOL      0.094974
     60 N6         -5.9440    0.5650   -0.7140 n         1 MOL     -0.241890
     61 C19        -6.5240   -0.5760   -1.3380 c3        1 MOL     -0.067427
     62 C20        -6.4840   -1.8790   -0.3780 c         1 MOL      0.425452
     63 O10        -7.1810   -2.8640   -0.7560 o         1 MOL     -0.552232
     64 C21        -5.6040   -0.9500   -2.5440 c3        1 MOL     -0.223825
     65 C22        -4.4330   -1.7690   -2.1900 c         1 MOL      0.692917
     66 N7         -4.1730   -2.9320   -2.7290 n         1 MOL     -0.765855
     67 O11        -3.6600   -1.3550   -1.3990 o         1 MOL     -0.644930
     68 H28        -5.0190    0.8300   -1.0060 hn        1 MOL      0.204620
     69 H29        -7.5430   -0.3520   -1.6560 h1        1 MOL      0.144033
     70 H30        -5.3170   -0.0860   -3.1430 hc        1 MOL      0.088442
     71 H31        -6.2260   -1.5590   -3.2060 hc        1 MOL      0.088442
     72 H32        -4.8990   -3.3340   -3.3020 hn        1 MOL      0.356869
     73 H33        -3.4310   -3.4150   -2.2500 hn        1 MOL      0.356869
     74 N8         -5.8610   -1.9060    0.8490 n         1 MOL     -0.158771
     75 C23        -6.0280   -2.9980    1.8510 c3        1 MOL     -0.213706
     76 C24        -4.7690   -3.8440    2.0960 c         1 MOL      0.504938
     77 O12        -4.7710   -4.8220    2.8680 o         1 MOL     -0.577910
     78 H34        -5.3730   -1.0860    1.1800 hn        1 MOL      0.255883
     79 H35        -6.8770   -3.5420    1.4590 h1        1 MOL      0.121097
     80 H36        -6.2970   -2.6680    2.8540 h1        1 MOL      0.121097
     81 N9         -3.7030   -3.5020    1.4610 n         1 MOL     -0.213050
     82 C25        -2.3950   -4.1540    1.7900 c3        1 MOL      0.085158
     83 C26        -1.2250   -3.1520    1.6020 c         1 MOL      0.485852
     84 O13        -1.2490   -2.2400    0.8290 o         1 MOL     -0.651826
     85 C27        -2.2240   -5.4860    1.0230 c3        1 MOL     -0.157154
     86 C28        -2.1890   -5.3630   -0.4490 ca        1 MOL      0.145991
     87 C29        -1.0880   -4.7970   -1.0480 ca        1 MOL     -0.198272
     88 C30        -3.2170   -5.9420   -1.2120 ca        1 MOL     -0.198272
     89 C31        -0.9120   -4.9060   -2.4500 ca        1 MOL     -0.248695
     90 C32        -3.0510   -5.9790   -2.5610 ca        1 MOL     -0.248695
     91 C33        -1.8610   -5.5870   -3.1840 ca        1 MOL      0.328210
     92 O14        -1.7220   -5.7190   -4.5220 oh        1 MOL     -0.519551
     93 H37        -3.6960   -2.7550    0.7870 hn        1 MOL      0.166822
     94 H38        -2.3120   -4.4010    2.8530 h1        1 MOL      0.058377
     95 H39        -2.9510   -6.1810    1.4470 hc        1 MOL      0.066083
     96 H40        -1.2530   -5.8510    1.3640 hc        1 MOL      0.066083
     97 H41        -0.3470   -4.2520   -0.4720 ha        1 MOL      0.161632
     98 H42        -3.9790   -6.5000   -0.6960 ha        1 MOL      0.161632
     99 H43         0.0030   -4.5740   -2.9180 ha        1 MOL      0.139233
    100 H44        -3.8940   -6.3840   -3.0940 ha        1 MOL      0.139233
    101 H45        -2.4640   -6.2260   -4.8650 ho        1 MOL      0.390262
    102 N10        -0.0690   -3.4300    2.1630 n         1 MOL     -0.463052
    103 C34         1.2250   -2.7250    2.1520 c3        1 MOL      0.087642
    104 C35         2.2210   -3.5710    1.2940 c         1 MOL      0.303193
    105 O15         2.3030   -4.7840    1.4200 o         1 MOL     -0.492111
    106 C36         1.8410   -2.4590    3.5300 c3        1 MOL     -0.004322
    107 C37         0.8840   -2.0560    4.6280 c3        1 MOL      0.214375
    108 C38         2.9910   -1.3780    3.4290 c3        1 MOL     -0.602288
    109 C39        -0.0890   -0.9430    4.2290 c3        1 MOL     -0.052985
    110 H46        -0.1070   -4.1770    2.8490 hn        1 MOL      0.296971
    111 H47         1.0420   -1.7640    1.6730 h1        1 MOL      0.197684
    112 H48         2.3450   -3.3570    3.8950 hc        1 MOL      0.041427
    113 H49         1.3990   -1.8650    5.5690 hc        1 MOL     -0.049290
    114 H50         0.3440   -2.9580    4.8990 hc        1 MOL     -0.049290
    115 H51         3.8700   -1.6450    2.8500 hc        1 MOL      0.161839
    116 H52         2.5140   -0.5080    2.9770 hc        1 MOL      0.161839
    117 H53         3.1650   -1.0870    4.4660 hc        1 MOL      0.161839
    118 H54         0.4180   -0.0400    3.8830 hc        1 MOL      0.010837
    119 H55        -0.7940   -1.3680    3.5110 hc        1 MOL      0.010837
    120 H56        -0.6650   -0.6850    5.1190 hc        1 MOL      0.010837
    121 N11         3.0590   -2.8610    0.4700 n         1 MOL     -0.007406
    122 C40         4.1810   -3.3640   -0.3600 c3        1 MOL     -0.022428
    123 C41         5.5430   -2.7400   -0.0020 c         1 MOL      0.387711
    124 O16         5.6300   -1.7090    0.7120 o         1 MOL     -0.368945
    125 C42         3.8970   -3.4510   -1.8110 c3        1 MOL      0.030714
    126 O17         3.7640   -2.1260   -2.3670 oh        1 MOL     -0.560513
    127 H57         3.0410   -1.8930    0.7380 hn        1 MOL      0.171380
    128 H58         4.2870   -4.3940   -0.0440 h1        1 MOL      0.063578
    129 H59         3.0130   -4.0520   -2.0550 h1        1 MOL      0.053322
    130 H60         4.7630   -3.9390   -2.2520 h1        1 MOL      0.053322
    131 H61         3.5430   -2.1800   -3.2920 ho        1 MOL      0.397767
    132 N12         6.6190   -3.2500   -0.5560 n         1 MOL     -0.360700
    133 C43         7.9260   -2.7320   -0.1660 c3        1 MOL      0.121960
    134 C44         8.2200   -1.3360   -0.5750 c         1 MOL      0.446958
    135 O18         8.6840   -0.4710    0.1850 o         1 MOL     -0.523544
    136 C45         9.0660   -3.7410   -0.6200 c3        1 MOL     -0.367839
    137 H62         6.4810   -3.8570   -1.3500 hn        1 MOL      0.271705
    138 H63         7.9370   -2.7980    0.9210 h1        1 MOL      0.085833
    139 H64         8.7040   -4.7330   -0.3190 hc        1 MOL      0.114228
    140 H65         9.2780   -3.6010   -1.6820 hc        1 MOL      0.114228
    141 H66         9.9880   -3.4660   -0.1110 hc        1 MOL      0.114228
    142 N13         7.9710   -1.0000   -1.8180 n         1 MOL     -0.309007
    143 C46         8.0580    0.4180   -2.2790 c3        1 MOL      0.034671
    144 C47         7.0520    1.3580   -1.5440 c         1 MOL      0.513665
    145 O19         7.4430    2.5020   -1.3690 o         1 MOL     -0.525254
    146 C48         7.7810    0.4850   -3.7440 c3        1 MOL     -0.205782
    147 H67         7.6020   -1.6250   -2.5240 hn        1 MOL      0.245658
    148 H68         9.0490    0.8040   -2.0010 h1        1 MOL      0.119607
    149 H69         7.8570    1.4970   -4.1260 hc        1 MOL      0.060305
    150 H70         8.5850   -0.1030   -4.1980 hc        1 MOL      0.060305
    151 H71         6.8460    0.0350   -4.0720 hc        1 MOL      0.060305
    152 N14         5.9040    0.8810   -1.0120 n         1 MOL     -0.332518
    153 C49         5.0660    1.7200   -0.1890 c3        1 MOL     -0.156425
    154 C50         5.6190    1.9920    1.1750 c         1 MOL      0.422813
    155 O20         5.3750    3.0850    1.7840 o         1 MOL     -0.564773
    156 C51         3.6550    1.0390   -0.0840 c3        1 MOL     -0.055387
    157 C52         2.6330    1.9590    0.6240 c3        1 MOL      0.040883
    158 C53         1.2200    1.3940    0.3740 c         1 MOL      0.684497
    159 O21         0.5810    0.7310    1.1900 o         1 MOL     -0.803817
    160 O22         0.6090    1.7220   -0.6660 o         1 MOL     -0.803817
    161 H72         5.6790   -0.0960   -1.1450 hn        1 MOL      0.153170
    162 H73         5.0360    2.6990   -0.6700 h1        1 MOL      0.135090
    163 H74         3.7220    0.1740    0.5710 hc        1 MOL      0.046466
    164 H75         3.2590    0.7260   -1.0540 hc        1 MOL      0.046466
    165 H76         2.7270    2.9350    0.1480 hc        1 MOL      0.037766
    166 H77         2.9260    2.0910    1.6670 hc        1 MOL      0.037766
    167 N15         6.2500    1.0200    1.7640 n         1 MOL      0.015033
    168 C54         6.8810    1.0970    3.0850 c3        1 MOL     -0.261302
    169 H78         6.1110    1.0880    3.8560 h1        1 MOL      0.105924
    170 H79         7.5420    0.2400    3.2230 h1        1 MOL      0.105924
    171 H80         7.4600    2.0170    3.1600 h1        1 MOL      0.105924
    172 H81         6.1870    0.1090    1.3370 hn        1 MOL      0.083412
    173 Ca1        -1.2290   -0.1530   -0.6250 Ca        1 MOL      1.795910
    174 O23         1.0340   -1.5810   -1.3690 oh        1 MOL     -0.910444
    175 H82         1.1110   -1.2890   -2.2720 ho        1 MOL      0.413779
    176 H83         1.2890   -2.5060   -1.3970 ho        1 MOL      0.413779
    177 O24        -1.2010   -0.7370   -3.2440 oh        1 MOL     -0.910444
    178 H84        -0.9740   -1.3630   -3.9280 ho        1 MOL      0.413779
    179 H85        -1.6830   -0.0420   -3.6850 ho        1 MOL      0.413779
@<TRIPOS>BOND
     1    1    2 1   
     2    1    4 1   
     3    1    5 1   
     4    1    6 1   
     5    2    3 2   
     6    2    7 1   
     7    7    8 1   
     8    7   15 1   
     9    8    9 1   
    10    8   11 1   
    11    8   16 1   
    12    9   10 2   
    13    9   19 1   
    14   11   12 1   
    15   11   17 1   
    16   11   18 1   
    17   12   13 1   
    18   12   14 1   
    19   19   20 1   
    20   19   28 1   
    21   20   21 1   
    22   20   23 1   
    23   20   29 1   
    24   21   22 2   
    25   21   41 1   
    26   23   24 1   
    27   23   30 1   
    28   23   31 1   
    29   24   25 1   
    30   24   32 1   
    31   24   33 1   
    32   25   26 1   
    33   25   34 1   
    34   25   35 1   
    35   26   27 1   
    36   26   36 1   
    37   26   37 1   
    38   27   38 1   
    39   27   39 1   
    40   27   40 1   
    41   41   42 1   
    42   41   49 1   
    43   42   43 1   
    44   42   45 1   
    45   42   50 1   
    46   43   44 2   
    47   43   53 1   
    48   45   46 1   
    49   45   51 1   
    50   45   52 1   
    51   46   47 1   
    52   46   48 1   
    53   53   54 1   
    54   53   57 1   
    55   54   55 1   
    56   54   58 1   
    57   54   59 1   
    58   55   56 2   
    59   55   60 1   
    60   60   61 1   
    61   60   68 1   
    62   61   62 1   
    63   61   64 1   
    64   61   69 1   
    65   62   63 2   
    66   62   74 1   
    67   64   65 1   
    68   64   70 1   
    69   64   71 1   
    70   65   66 1   
    71   65   67 2   
    72   66   72 1   
    73   66   73 1   
    74   74   75 1   
    75   74   78 1   
    76   75   76 1   
    77   75   79 1   
    78   75   80 1   
    79   76   77 2   
    80   76   81 1   
    81   81   82 1   
    82   81   93 1   
    83   82   83 1   
    84   82   85 1   
    85   82   94 1   
    86   83   84 2   
    87   83  102 1   
    88   85   86 1   
    89   85   95 1   
    90   85   96 1   
    91   86   87 ar  
    92   86   88 ar  
    93   87   89 ar  
    94   87   97 1   
    95   88   90 ar  
    96   88   98 1   
    97   89   91 ar  
    98   89   99 1   
    99   90   91 ar  
   100   90  100 1   
   101   91   92 1   
   102   92  101 1   
   103  102  103 1   
   104  102  110 1   
   105  103  104 1   
   106  103  106 1   
   107  103  111 1   
   108  104  105 2   
   109  104  121 1   
   110  106  107 1   
   111  106  108 1   
   112  106  112 1   
   113  107  109 1   
   114  107  113 1   
   115  107  114 1   
   116  108  115 1   
   117  108  116 1   
   118  108  117 1   
   119  109  118 1   
   120  109  119 1   
   121  109  120 1   
   122  121  122 1   
   123  121  127 1   
   124  122  123 1   
   125  122  125 1   
   126  122  128 1   
   127  123  124 2   
   128  123  132 1   
   129  125  126 1   
   130  125  129 1   
   131  125  130 1   
   132  126  131 1   
   133  132  133 1   
   134  132  137 1   
   135  133  134 1   
   136  133  136 1   
   137  133  138 1   
   138  134  135 2   
   139  134  142 1   
   140  136  139 1   
   141  136  140 1   
   142  136  141 1   
   143  142  143 1   
   144  142  147 1   
   145  143  144 1   
   146  143  146 1   
   147  143  148 1   
   148  144  145 2   
   149  144  152 1   
   150  146  149 1   
   151  146  150 1   
   152  146  151 1   
   153  152  153 1   
   154  152  161 1   
   155  153  154 1   
   156  153  156 1   
   157  153  162 1   
   158  154  155 2   
   159  154  167 1   
   160  156  157 1   
   161  156  163 1   
   162  156  164 1   
   163  157  158 1   
   164  157  165 1   
   165  157  166 1   
   166  158  159 1   
   167  158  160 1   
   168  167  168 1   
   169  167  172 1   
   170  168  169 1   
   171  168  170 1   
   172  168  171 1   
   173  174  175 1   
   174  174  176 1   
   175  177  178 1   
   176  177  179 1   
@<TRIPOS>SUBSTRUCTURE
     1 MOL         1 TEMP              0 ****  ****    0 ROOT
