@<TRIPOS>MOLECULE
MOL
  189   185     1     0     0
SMALL
resp


@<TRIPOS>ATOM
      1 C1          0.4490    2.6470    5.0910 c3        1 MOL     -0.589245
      2 C2         -0.2460    2.5890    3.7150 c         1 MOL      0.679094
      3 O1          0.4230    2.6930    2.6880 o         1 MOL     -0.542142
      4 H1          1.3570    2.0440    5.0640 hc        1 MOL      0.149723
      5 H2          0.7060    3.6800    5.3250 hc        1 MOL      0.149723
      6 H3         -0.2230    2.2570    5.8550 hc        1 MOL      0.149723
      7 N1         -1.4940    2.1500    3.7500 n         1 MOL     -0.566042
      8 C3         -2.2690    1.8650    2.4980 c3        1 MOL      0.283939
      9 C4         -2.6960    3.1970    1.8530 c         1 MOL      0.277588
     10 O2         -3.7430    3.7490    2.1250 o         1 MOL     -0.481124
     11 C5         -3.3890    0.9030    2.8220 c3        1 MOL     -0.218090
     12 C6         -4.1680    0.4110    1.5310 c         1 MOL      0.757116
     13 O3         -5.1030   -0.3860    1.6780 o         1 MOL     -0.680192
     14 O4         -3.8320    0.7690    0.3940 o         1 MOL     -0.680192
     15 H4         -1.8790    1.9040    4.6500 hn        1 MOL      0.321859
     16 H5         -1.7050    1.3270    1.7320 h1        1 MOL     -0.020038
     17 H6         -4.1310    1.3200    3.5070 hc        1 MOL      0.042913
     18 H7         -2.9050    0.0120    3.2130 hc        1 MOL      0.042913
     19 N2         -1.7940    3.7940    1.0380 n         1 MOL     -0.151586
     20 C7         -2.0100    5.0810    0.3810 c3        1 MOL     -0.126683
     21 C8         -2.9460    5.0740   -0.7850 c         1 MOL      0.669310
     22 O5         -3.3030    6.1630   -1.2420 o         1 MOL     -0.615777
     23 C9         -0.7050    5.7550   -0.0110 c3        1 MOL     -0.151011
     24 C10         0.4770    5.9000    1.0170 c3        1 MOL      0.082178
     25 C11         0.0350    6.8000    2.1150 c3        1 MOL     -0.221366
     26 C12         1.3360    7.1950    2.8960 c3        1 MOL      0.008172
     27 N3          1.1390    7.7810    4.2650 n4        1 MOL     -0.252773
     28 H8         -0.9730    3.2530    0.8040 hn        1 MOL      0.282278
     29 H9         -2.5900    5.6140    1.1320 h1        1 MOL      0.077864
     30 H10        -0.8580    6.7900   -0.3120 hc        1 MOL      0.061399
     31 H11        -0.5020    5.1870   -0.9150 hc        1 MOL      0.061399
     32 H12         1.3180    6.3610    0.5000 hc        1 MOL      0.018313
     33 H13         0.7580    4.9230    1.4060 hc        1 MOL      0.018313
     34 H14        -0.7180    6.3040    2.7230 hc        1 MOL      0.098466
     35 H15        -0.3000    7.7590    1.7100 hc        1 MOL      0.098466
     36 H16         1.9300    7.8920    2.3130 hx        1 MOL      0.091814
     37 H17         1.8210    6.2470    3.1100 hx        1 MOL      0.091814
     38 H18         1.9920    8.0250    4.7610 hn        1 MOL      0.296830
     39 H19         0.5990    8.6120    4.0730 hn        1 MOL      0.296830
     40 H20         0.5860    7.1890    4.8700 hn        1 MOL      0.296830
     41 N4         -3.5390    3.9590   -1.1270 n         1 MOL     -0.370619
     42 C13        -4.4920    3.8680   -2.3020 c3        1 MOL      0.070746
     43 C14        -5.7600    2.9780   -2.0300 c         1 MOL      0.397200
     44 O6         -6.5980    2.6660   -2.8310 o         1 MOL     -0.501530
     45 C15        -3.7710    3.4690   -3.5950 c3        1 MOL     -0.315185
     46 C16        -2.9810    2.1960   -3.4190 c         1 MOL      0.882159
     47 O7         -2.1260    1.9750   -4.3350 o         1 MOL     -0.744830
     48 O8         -3.0230    1.3740   -2.4850 o         1 MOL     -0.744830
     49 H21        -3.2290    3.0480   -0.8030 hn        1 MOL      0.161681
     50 H22        -4.8820    4.8710   -2.4820 h1        1 MOL      0.092997
     51 H23        -2.9220    4.1460   -3.6870 hc        1 MOL      0.085799
     52 H24        -4.4360    3.3990   -4.4570 hc        1 MOL      0.085799
     53 N5         -5.9090    2.6520   -0.7540 n         1 MOL     -0.253941
     54 C17        -7.0410    1.9270   -0.2100 c3        1 MOL     -0.108298
     55 C18        -7.3470    0.4980   -0.5860 c         1 MOL      0.442055
     56 O9         -8.4970    0.1000   -0.4340 o         1 MOL     -0.565881
     57 H25        -5.2030    3.0220   -0.1460 hn        1 MOL      0.181415
     58 H26        -7.9120    2.5550   -0.4320 h1        1 MOL      0.095122
     59 H27        -6.9950    1.9870    0.8760 h1        1 MOL      0.095122
     60 N6         -6.4280   -0.2020   -1.2320 n         1 MOL     -0.107587
     61 C19        -6.8050   -1.4250   -1.9050 c3        1 MOL     -0.060870
     62 C20        -6.9180   -2.5910   -0.9210 c         1 MOL      0.383457
     63 O10        -7.6280   -3.5940   -1.2250 o         1 MOL     -0.566605
     64 C21        -5.8750   -1.9080   -3.0670 c3        1 MOL     -0.179149
     65 C22        -4.4150   -2.0200   -2.6800 c         1 MOL      0.710118
     66 O11        -3.4800   -1.5650   -3.4040 o         1 MOL     -0.693066
     67 O12        -4.1590   -2.4120   -1.4960 o         1 MOL     -0.693066
     68 H28        -5.5240    0.2090   -1.4050 hn        1 MOL      0.197273
     69 H29        -7.7340   -1.2480   -2.4400 h1        1 MOL      0.121991
     70 H30        -5.8470   -1.2270   -3.9150 hc        1 MOL      0.053833
     71 H31        -6.2610   -2.8540   -3.4620 hc        1 MOL      0.053833
     72 N7         -6.4310   -2.4930    0.3380 n         1 MOL     -0.117832
     73 C23        -6.5720   -3.6390    1.3600 c3        1 MOL     -0.225981
     74 C24        -5.2610   -4.3360    1.6150 c         1 MOL      0.558440
     75 O13        -5.2580   -5.2830    2.3720 o         1 MOL     -0.578313
     76 H32        -5.9300   -1.6740    0.6560 hn        1 MOL      0.205936
     77 H33        -7.2290   -4.3990    0.9420 h1        1 MOL      0.122274
     78 H34        -7.0960   -3.1180    2.1680 h1        1 MOL      0.122274
     79 N8         -4.1530   -3.9690    0.9330 n         1 MOL     -0.077146
     80 C25        -2.8430   -4.5660    1.1640 c3        1 MOL     -0.148096
     81 C26        -1.7460   -3.4940    1.3740 c         1 MOL      0.720190
     82 O14        -1.9250   -2.3030    1.0300 o         1 MOL     -0.614857
     83 C27        -2.4270   -5.6100    0.0730 c3        1 MOL      0.380817
     84 C28        -3.2290   -6.8530    0.0230 c3        1 MOL     -0.418556
     85 O15        -2.5270   -4.9250   -1.2100 oh        1 MOL     -0.637422
     86 H35        -4.1210   -3.0900    0.4340 hn        1 MOL      0.003757
     87 H36        -2.8320   -5.1080    2.1080 h1        1 MOL      0.045050
     88 H37        -1.4090   -5.9250    0.3210 h1        1 MOL      0.035079
     89 H38        -3.4470   -4.8790   -1.4710 ho        1 MOL      0.416743
     90 H39        -3.3030   -7.4070    0.9620 hc        1 MOL      0.112862
     91 H40        -4.2490   -6.5850   -0.2610 hc        1 MOL      0.112862
     92 H41        -2.7150   -7.5040   -0.6860 hc        1 MOL      0.112862
     93 N9         -0.5480   -3.8180    1.9680 n         1 MOL     -0.641851
     94 C29         0.7260   -3.0470    1.9740 c3        1 MOL      0.080244
     95 C30         1.7350   -3.7600    1.0360 c         1 MOL      0.606101
     96 O16         1.9930   -4.9270    1.2670 o         1 MOL     -0.566003
     97 C31         1.2160   -2.9370    3.4480 c3        1 MOL      0.105007
     98 C32         0.1670   -2.2440    4.3220 c3        1 MOL      0.147222
     99 C33         2.5230   -2.2650    3.5300 c3        1 MOL     -0.203756
    100 C34         0.4580   -2.3440    5.8200 c3        1 MOL     -0.224215
    101 H42        -0.5660   -4.8060    2.1910 hn        1 MOL      0.296505
    102 H43         0.5320   -2.0480    1.5670 h1        1 MOL      0.073050
    103 H44         1.3100   -3.9370    3.8760 hc        1 MOL      0.011034
    104 H45        -0.8180   -2.7300    4.2710 hc        1 MOL     -0.003010
    105 H46         0.0650   -1.2020    4.0230 hc        1 MOL     -0.003010
    106 H47         2.8150   -2.2370    4.5840 hc        1 MOL      0.030799
    107 H48         3.2420   -2.7360    2.8600 hc        1 MOL      0.030799
    108 H49         2.3900   -1.2340    3.1880 hc        1 MOL      0.030799
    109 H50        -0.4470   -2.1270    6.3950 hc        1 MOL      0.048291
    110 H51         0.6460   -3.3940    6.0550 hc        1 MOL      0.048291
    111 H52         1.3080   -1.7640    6.1540 hc        1 MOL      0.048291
    112 N10         2.3240   -3.0660    0.0300 n         1 MOL     -0.355240
    113 C35         3.5530   -3.3150   -0.8080 c3        1 MOL     -0.046116
    114 C36         4.8130   -2.7360   -0.0890 c         1 MOL      0.332209
    115 O17         4.7560   -1.9150    0.8150 o         1 MOL     -0.196257
    116 C37         3.5480   -2.4940   -2.1490 c3        1 MOL      0.390313
    117 C38         2.4620   -3.1180   -3.0410 c3        1 MOL     -0.584798
    118 O18         3.1580   -1.1310   -1.9840 oh        1 MOL     -0.663199
    119 H53         1.9600   -2.1470   -0.1770 hn        1 MOL      0.186358
    120 H54         3.7160   -4.3730   -1.0340 h1        1 MOL      0.091853
    121 H55         4.5080   -2.5050   -2.6590 h1        1 MOL      0.032205
    122 H56         2.2740   -1.0190   -1.6280 ho        1 MOL      0.475434
    123 H57         2.6480   -4.1910   -3.0100 hc        1 MOL      0.149059
    124 H58         1.4760   -2.8350   -2.6560 hc        1 MOL      0.149059
    125 H59         2.4950   -2.6980   -4.0470 hc        1 MOL      0.149059
    126 N11         5.9480   -3.2380   -0.5990 n         1 MOL     -0.325729
    127 C39         7.1970   -2.9040    0.0150 c3        1 MOL     -0.061110
    128 C40         7.4920   -1.4170    0.1500 c         1 MOL      0.296852
    129 O19         7.9450   -0.9720    1.2210 o         1 MOL     -0.449347
    130 C41         8.3480   -3.4490   -0.8820 c3        1 MOL      0.342806
    131 C42         8.5680   -4.9240   -0.6400 c3        1 MOL     -0.303204
    132 O20         8.0220   -3.2790   -2.2360 oh        1 MOL     -0.643628
    133 H60         5.9480   -3.8560   -1.3980 hn        1 MOL      0.272350
    134 H61         7.2590   -3.1870    1.0640 h1        1 MOL      0.109763
    135 H62         9.3160   -2.9650   -0.7320 h1        1 MOL      0.034516
    136 H63         8.8340   -3.1900   -2.7530 ho        1 MOL      0.412406
    137 H64         7.6800   -5.4220   -1.0260 hc        1 MOL      0.083314
    138 H65         9.4840   -5.2520   -1.1380 hc        1 MOL      0.083314
    139 H66         8.6550   -5.1500    0.4310 hc        1 MOL      0.083314
    140 N12         7.3060   -0.6450   -0.9740 n         1 MOL     -0.195162
    141 C43         7.3350    0.7780   -1.0300 c3        1 MOL     -0.342807
    142 C44         6.2720    1.5070   -0.1990 c         1 MOL      0.441771
    143 O21         6.5820    2.5480    0.3620 o         1 MOL     -0.497618
    144 C45         7.1950    1.2100   -2.5120 c3        1 MOL     -0.047880
    145 C46         7.3050    2.7400   -2.6360 c3        1 MOL     -0.081540
    146 C47         7.3310    3.2170   -4.0620 c3        1 MOL     -0.068598
    147 C48         5.9850    3.0700   -4.7720 c3        1 MOL      0.031274
    148 N13         6.1500    3.3560   -6.2200 n4        1 MOL     -0.310953
    149 H67         7.0430   -1.1190   -1.8240 hn        1 MOL      0.202715
    150 H68         8.2960    1.0800   -0.6200 h1        1 MOL      0.204578
    151 H69         6.2560    0.7660   -2.8610 hc        1 MOL      0.060078
    152 H70         7.9470    0.7370   -3.1440 hc        1 MOL      0.060078
    153 H71         8.2800    3.0430   -2.2610 hc        1 MOL      0.090886
    154 H72         6.5540    3.2660   -2.0410 hc        1 MOL      0.090886
    155 H73         8.0440    2.5620   -4.5740 hc        1 MOL      0.036232
    156 H74         7.5770    4.2810   -4.0630 hc        1 MOL      0.036232
    157 H75         5.3440    3.8080   -4.2890 hx        1 MOL      0.100198
    158 H76         5.6140    2.0530   -4.6440 hx        1 MOL      0.100198
    159 H77         5.3590    3.0160   -6.7610 hn        1 MOL      0.296073
    160 H78         6.1390    4.3300   -6.5010 hn        1 MOL      0.296073
    161 H79         7.0200    2.9500   -6.5300 hn        1 MOL      0.296073
    162 N14         5.0440    0.9950   -0.0210 n         1 MOL     -0.258664
    163 C49         4.0810    1.6200    0.9500 c3        1 MOL     -0.014999
    164 C50         4.5920    1.4750    2.3800 c         1 MOL      0.350100
    165 O22         4.7150    2.3890    3.1550 o         1 MOL     -0.549070
    166 C51         2.6440    0.8880    0.9320 c3        1 MOL     -0.107586
    167 C52         1.9410    1.4790   -0.2840 c3        1 MOL     -0.040115
    168 C53         0.6750    0.6900   -0.5890 c         1 MOL      0.732078
    169 O23         0.7630   -0.5510   -0.7830 o         1 MOL     -0.743535
    170 O24        -0.4470    1.2620   -0.4840 o         1 MOL     -0.743535
    171 H80         4.8930    0.0570   -0.3550 hn        1 MOL      0.195746
    172 H81         4.0440    2.6970    0.7520 h1        1 MOL      0.089700
    173 H82         2.1590    1.0760    1.8900 hc        1 MOL      0.091872
    174 H83         2.7860   -0.1890    0.8300 hc        1 MOL      0.091872
    175 H84         2.5420    1.3950   -1.1850 hc        1 MOL     -0.019882
    176 H85         1.5930    2.4920   -0.1020 hc        1 MOL     -0.019882
    177 N15         5.1850    0.3270    2.7290 n         1 MOL      0.136061
    178 C54         5.6570    0.0260    4.1090 c3        1 MOL     -0.209895
    179 H86         6.7200    0.2540    4.1870 h1        1 MOL      0.081871
    180 H87         5.1020    0.6330    4.8240 h1        1 MOL      0.081871
    181 H88         5.4950   -1.0300    4.3260 h1        1 MOL      0.081871
    182 H89         4.9370   -0.4250    2.0980 hn        1 MOL     -0.066512
    183 Ca1        -2.1660   -0.5530   -1.1030 Ca        1 MOL      1.747057
    184 O25        -1.0760   -2.7080   -2.0320 oh        1 MOL     -0.827373
    185 H90        -0.7320   -2.5970   -2.9130 ho        1 MOL      0.386176
    186 H91        -1.4160   -3.6070   -2.0210 ho        1 MOL      0.386176
    187 O26        -0.7990   -0.1990   -3.6150 oh        1 MOL     -0.827373
    188 H92        -1.4880    0.3340   -4.0160 ho        1 MOL      0.386176
    189 H93        -0.0240   -0.0470   -4.1520 ho        1 MOL      0.386176
@<TRIPOS>BOND
     1    1    2 1   
     2    1    4 1   
     3    1    5 1   
     4    1    6 1   
     5    2    3 2   
     6    2    7 1   
     7    7    8 1   
     8    7   15 1   
     9    8    9 1   
    10    8   11 1   
    11    8   16 1   
    12    9   10 2   
    13    9   19 1   
    14   11   12 1   
    15   11   17 1   
    16   11   18 1   
    17   12   13 1   
    18   12   14 1   
    19   19   20 1   
    20   19   28 1   
    21   20   21 1   
    22   20   23 1   
    23   20   29 1   
    24   21   22 2   
    25   21   41 1   
    26   23   24 1   
    27   23   30 1   
    28   23   31 1   
    29   24   25 1   
    30   24   32 1   
    31   24   33 1   
    32   25   26 1   
    33   25   34 1   
    34   25   35 1   
    35   26   27 1   
    36   26   36 1   
    37   26   37 1   
    38   27   38 1   
    39   27   39 1   
    40   27   40 1   
    41   41   42 1   
    42   41   49 1   
    43   42   43 1   
    44   42   45 1   
    45   42   50 1   
    46   43   44 2   
    47   43   53 1   
    48   45   46 1   
    49   45   51 1   
    50   45   52 1   
    51   46   47 1   
    52   46   48 1   
    53   53   54 1   
    54   53   57 1   
    55   54   55 1   
    56   54   58 1   
    57   54   59 1   
    58   55   56 2   
    59   55   60 1   
    60   60   61 1   
    61   60   68 1   
    62   61   62 1   
    63   61   64 1   
    64   61   69 1   
    65   62   63 2   
    66   62   72 1   
    67   64   65 1   
    68   64   70 1   
    69   64   71 1   
    70   65   66 1   
    71   65   67 1   
    72   72   73 1   
    73   72   76 1   
    74   73   74 1   
    75   73   77 1   
    76   73   78 1   
    77   74   75 2   
    78   74   79 1   
    79   79   80 1   
    80   79   86 1   
    81   80   81 1   
    82   80   83 1   
    83   80   87 1   
    84   81   82 2   
    85   81   93 1   
    86   83   84 1   
    87   83   85 1   
    88   83   88 1   
    89   84   90 1   
    90   84   91 1   
    91   84   92 1   
    92   85   89 1   
    93   93   94 1   
    94   93  101 1   
    95   94   95 1   
    96   94   97 1   
    97   94  102 1   
    98   95   96 2   
    99   95  112 1   
   100   97   98 1   
   101   97   99 1   
   102   97  103 1   
   103   98  100 1   
   104   98  104 1   
   105   98  105 1   
   106   99  106 1   
   107   99  107 1   
   108   99  108 1   
   109  100  109 1   
   110  100  110 1   
   111  100  111 1   
   112  112  113 1   
   113  112  119 1   
   114  113  114 1   
   115  113  116 1   
   116  113  120 1   
   117  114  115 2   
   118  114  126 1   
   119  116  117 1   
   120  116  118 1   
   121  116  121 1   
   122  117  123 1   
   123  117  124 1   
   124  117  125 1   
   125  118  122 1   
   126  126  127 1   
   127  126  133 1   
   128  127  128 1   
   129  127  130 1   
   130  127  134 1   
   131  128  129 2   
   132  128  140 1   
   133  130  131 1   
   134  130  132 1   
   135  130  135 1   
   136  131  137 1   
   137  131  138 1   
   138  131  139 1   
   139  132  136 1   
   140  140  141 1   
   141  140  149 1   
   142  141  142 1   
   143  141  144 1   
   144  141  150 1   
   145  142  143 2   
   146  142  162 1   
   147  144  145 1   
   148  144  151 1   
   149  144  152 1   
   150  145  146 1   
   151  145  153 1   
   152  145  154 1   
   153  146  147 1   
   154  146  155 1   
   155  146  156 1   
   156  147  148 1   
   157  147  157 1   
   158  147  158 1   
   159  148  159 1   
   160  148  160 1   
   161  148  161 1   
   162  162  163 1   
   163  162  171 1   
   164  163  164 1   
   165  163  166 1   
   166  163  172 1   
   167  164  165 2   
   168  164  177 1   
   169  166  167 1   
   170  166  173 1   
   171  166  174 1   
   172  167  168 1   
   173  167  175 1   
   174  167  176 1   
   175  168  169 1   
   176  168  170 1   
   177  177  178 1   
   178  177  182 1   
   179  178  179 1   
   180  178  180 1   
   181  178  181 1   
   182  184  185 1   
   183  184  186 1   
   184  187  188 1   
   185  187  189 1   
@<TRIPOS>SUBSTRUCTURE
     1 MOL         1 TEMP              0 ****  ****    0 ROOT
