@<TRIPOS>MOLECULE
MOL
  189   185     1     0     0
SMALL
resp


@<TRIPOS>ATOM
      1 C1          1.6390   -2.5830    6.4200 c3        1 MOL     -0.386522
      2 C2          1.4700   -2.4390    4.8830 c         1 MOL      0.793090
      3 O1          1.1170   -1.3990    4.3360 o         1 MOL     -0.627501
      4 H1          2.6360   -2.2500    6.7070 hc        1 MOL      0.093966
      5 H2          0.8920   -1.9720    6.9270 hc        1 MOL      0.093966
      6 H3          1.5080   -3.6260    6.7040 hc        1 MOL      0.093966
      7 N1          1.6140   -3.5070    4.1460 n         1 MOL     -0.574158
      8 C3          2.1960   -3.4910    2.7270 c3        1 MOL      0.105486
      9 C4          1.8860   -4.7620    1.8720 c         1 MOL      0.498731
     10 O2          1.8150   -5.8340    2.4410 o         1 MOL     -0.566476
     11 C5          3.7540   -3.4310    2.8280 c3        1 MOL     -0.305045
     12 C6          4.3020   -2.8180    1.6110 c         1 MOL      0.758856
     13 O3          3.4960   -2.3350    0.7640 o         1 MOL     -0.678015
     14 O4          5.5100   -2.7560    1.3910 o         1 MOL     -0.678015
     15 H4          1.7460   -4.4020    4.5950 hn        1 MOL      0.294314
     16 H5          1.7820   -2.5660    2.3420 h1        1 MOL      0.066835
     17 H6          4.1350   -4.4290    3.0270 hc        1 MOL      0.072244
     18 H7          4.0310   -2.7700    3.6500 hc        1 MOL      0.072244
     19 N2          1.8030   -4.5780    0.5790 n         1 MOL      0.030780
     20 C7          1.7330   -5.5720   -0.5430 c3        1 MOL     -0.556830
     21 C8          2.3260   -5.1490   -1.8870 c         1 MOL      0.709633
     22 O5          2.3030   -5.9140   -2.8480 o         1 MOL     -0.593543
     23 C9          0.2760   -6.1210   -0.7670 c3        1 MOL      0.393940
     24 C10         0.1870   -7.5480   -1.2740 c3        1 MOL      0.033613
     25 C11        -0.5870   -5.0470   -1.4320 c3        1 MOL     -0.037759
     26 C12        -1.1540   -8.2240   -0.8900 c3        1 MOL     -0.295150
     27 H8          1.6870   -3.6510    0.1670 hn        1 MOL      0.010904
     28 H9          2.3660   -6.3990   -0.2130 h1        1 MOL      0.146673
     29 H10        -0.1740   -6.1270    0.2290 hc        1 MOL     -0.055846
     30 H11         0.8840   -8.0920   -0.6430 hc        1 MOL     -0.001961
     31 H12         0.4320   -7.6790   -2.3240 hc        1 MOL     -0.001961
     32 H13        -0.4100   -5.0430   -2.5010 hc        1 MOL      0.001931
     33 H14        -1.6200   -5.3710   -1.3400 hc        1 MOL      0.001931
     34 H15        -0.4640   -4.0280   -1.0590 hc        1 MOL      0.001931
     35 H16        -1.0920   -9.2870   -1.1310 hc        1 MOL      0.060882
     36 H17        -1.4430   -8.3960    0.1480 hc        1 MOL      0.060882
     37 H18        -1.8900   -7.6420   -1.4450 hc        1 MOL      0.060882
     38 N3          3.0890   -4.0820   -1.9540 n         1 MOL     -0.490042
     39 C13         3.8160   -3.6420   -3.1710 c3        1 MOL      0.103394
     40 C14         5.1810   -2.9640   -2.9870 c         1 MOL      0.354741
     41 O6          5.9120   -2.8190   -3.9470 o         1 MOL     -0.533767
     42 C15         2.8550   -2.7570   -4.0760 c3        1 MOL     -0.276405
     43 C16         2.3170   -1.5420   -3.2430 c         1 MOL      0.878783
     44 O7          2.9010   -1.1440   -2.2570 o         1 MOL     -0.759166
     45 O8          1.2920   -0.9690   -3.5670 o         1 MOL     -0.759166
     46 H19         3.1140   -3.4810   -1.1430 hn        1 MOL      0.329523
     47 H20         4.0450   -4.5200   -3.7830 h1        1 MOL      0.077767
     48 H21         1.9460   -3.3250   -4.2930 hc        1 MOL      0.075330
     49 H22         3.3680   -2.4930   -5.0080 hc        1 MOL      0.075330
     50 N4          5.4870   -2.5440   -1.7630 n         1 MOL     -0.078965
     51 C17         6.7880   -2.0230   -1.4890 c3        1 MOL     -0.279881
     52 C18         7.0770   -0.5580   -1.8730 c         1 MOL      0.474772
     53 O9          8.2210   -0.1690   -1.7990 o         1 MOL     -0.577969
     54 H23         4.8430   -2.6260   -0.9910 hn        1 MOL      0.073368
     55 H24         7.4150   -2.6730   -2.0860 h1        1 MOL      0.129651
     56 H25         7.0510   -2.2900   -0.4670 h1        1 MOL      0.129651
     57 N5          6.0930    0.1500   -2.3950 n         1 MOL     -0.166030
     58 C19         6.2350    1.5420   -2.9650 c3        1 MOL      0.033205
     59 C20         6.8210    2.5500   -1.9560 c         1 MOL      0.398479
     60 O10         7.4180    3.5570   -2.3650 o         1 MOL     -0.531490
     61 C21         4.8950    2.0100   -3.5930 c3        1 MOL     -0.290237
     62 C22         3.7220    2.1900   -2.6580 c         1 MOL      0.811274
     63 O11         3.7350    1.7780   -1.4630 o         1 MOL     -0.702663
     64 O12         2.7930    2.7760   -3.1400 o         1 MOL     -0.702663
     65 H26         5.1030   -0.0550   -2.3060 hn        1 MOL      0.139073
     66 H27         6.8560    1.6550   -3.8510 h1        1 MOL      0.054132
     67 H28         4.5610    1.2600   -4.3060 hc        1 MOL      0.088954
     68 H29         5.1860    2.9550   -4.0580 hc        1 MOL      0.088954
     69 N6          6.3950    2.3580   -0.6750 n         1 MOL     -0.144528
     70 C23         6.7800    3.2470    0.3960 c3        1 MOL     -0.116519
     71 C24         5.7150    4.1970    0.8430 c         1 MOL      0.589936
     72 O13         5.9920    5.1380    1.5650 o         1 MOL     -0.615750
     73 H30         5.8410    1.5360   -0.4570 hn        1 MOL      0.151812
     74 H31         7.7220    3.7230    0.1520 h1        1 MOL      0.057625
     75 H32         6.9690    2.6110    1.2650 h1        1 MOL      0.057625
     76 N7          4.4850    3.8380    0.5370 n         1 MOL     -0.255195
     77 C25         3.3170    4.3720    1.2310 c3        1 MOL     -0.114398
     78 C26         2.3300    3.2290    1.5970 c         1 MOL      0.667631
     79 O14         2.1200    2.3330    0.7440 o         1 MOL     -0.523795
     80 C27         2.6280    5.3450    0.2820 c3        1 MOL     -0.036245
     81 C28         3.3100    6.6710    0.2700 c3        1 MOL     -0.247022
     82 C29         2.4120    7.7360   -0.2680 c         1 MOL      0.701368
     83 N8          2.1520    7.7960   -1.5480 n         1 MOL     -0.825572
     84 O15         1.9370    8.6760    0.3830 o         1 MOL     -0.604354
     85 H33         4.3850    3.0320   -0.0610 hn        1 MOL      0.173932
     86 H34         3.5690    4.8990    2.1440 h1        1 MOL      0.107315
     87 H35         1.5850    5.4360    0.5960 hc        1 MOL      0.070432
     88 H36         2.5600    4.9720   -0.7470 hc        1 MOL      0.070432
     89 H37         4.1990    6.6830   -0.3710 hc        1 MOL      0.088229
     90 H38         3.4310    7.0190    1.2920 hc        1 MOL      0.088229
     91 H39         2.2040    7.0130   -2.1760 hn        1 MOL      0.361468
     92 H40         1.6860    8.6130   -1.9350 hn        1 MOL      0.361468
     93 N9          1.5930    3.2400    2.8090 n         1 MOL     -0.766993
     94 C30         0.4030    2.4220    2.9020 c3        1 MOL      0.055891
     95 C31        -0.7900    2.9810    2.0790 c         1 MOL      0.457503
     96 O16        -0.9490    4.2150    1.9960 o         1 MOL     -0.567436
     97 C32        -0.0870    2.3910    4.3640 c3        1 MOL      0.199587
     98 C33        -0.9230    1.1300    4.6080 c3        1 MOL     -0.285774
     99 C34         1.1170    2.5130    5.2950 c3        1 MOL     -0.285774
    100 H41         1.5730    4.0970    3.3410 hn        1 MOL      0.369144
    101 H42         0.6340    1.4260    2.5150 h1        1 MOL      0.231177
    102 H43        -0.6520    3.2960    4.6090 hc        1 MOL      0.003226
    103 H44        -1.9740    1.2270    4.3320 hc        1 MOL      0.060744
    104 H45        -0.4730    0.3080    4.0470 hc        1 MOL      0.060744
    105 H46        -0.8630    0.9360    5.6800 hc        1 MOL      0.060744
    106 H47         1.4670    3.5430    5.2690 hc        1 MOL      0.060744
    107 H48         0.7810    2.4220    6.3250 hc        1 MOL      0.060744
    108 H49         1.9140    1.7690    5.1740 hc        1 MOL      0.060744
    109 N10        -1.5830    2.0680    1.5780 n         1 MOL     -0.329110
    110 C35        -2.7440    2.4130    0.7420 c3        1 MOL      0.657645
    111 C36        -4.1290    2.0360    1.2380 c         1 MOL      0.173761
    112 O17        -4.2110    1.1330    2.1530 o         1 MOL     -0.498867
    113 C37        -2.4790    2.2780   -0.7870 c3        1 MOL     -0.047430
    114 C38        -2.8520    0.9710   -1.4650 c         1 MOL      0.572116
    115 N11        -1.9570    0.2450   -2.0480 n         1 MOL     -0.734667
    116 O18        -4.0180    0.6760   -1.5100 o         1 MOL     -0.492532
    117 H50        -1.1570    1.1720    1.3690 hn        1 MOL     -0.002991
    118 H51        -2.7930    3.4870    0.9170 h1        1 MOL     -0.117971
    119 H52        -1.3940    2.3840   -0.8360 hc        1 MOL     -0.017074
    120 H53        -2.8840    3.1810   -1.2390 hc        1 MOL     -0.017074
    121 H54        -0.9930    0.5620   -2.0650 hn        1 MOL      0.391975
    122 H55        -2.1940   -0.6560   -2.4310 hn        1 MOL      0.391975
    123 N12        -5.1740    2.7100    0.7750 n         1 MOL     -0.194414
    124 C39        -6.5890    2.4480    1.0490 c3        1 MOL     -0.000300
    125 C40        -7.0280    0.9800    0.8990 c         1 MOL      0.543099
    126 O19        -7.9530    0.5610    1.5630 o         1 MOL     -0.600071
    127 C41        -7.4380    3.4110    0.1950 c3        1 MOL     -0.065485
    128 C42        -7.4760    3.1370   -1.3080 ca        1 MOL      0.074653
    129 C43        -8.7490    2.7080   -1.8860 ca        1 MOL     -0.204959
    130 C44        -6.4160    3.2600   -2.1710 ca        1 MOL     -0.204959
    131 C45        -8.9250    2.3570   -3.2350 ca        1 MOL     -0.235923
    132 C46        -6.5870    2.9020   -3.5300 ca        1 MOL     -0.235923
    133 C47        -7.8110    2.4320   -4.0980 ca        1 MOL      0.259150
    134 O20        -7.8330    1.8730   -5.3710 oh        1 MOL     -0.465979
    135 H56        -5.0110    3.6060    0.3370 hn        1 MOL      0.223503
    136 H57        -6.7770    2.7540    2.0890 h1        1 MOL      0.047895
    137 H58        -7.0810    4.4370    0.2920 hc        1 MOL      0.027381
    138 H59        -8.4430    3.4630    0.6180 hc        1 MOL      0.027381
    139 H60        -9.5990    2.6300   -1.2250 ha        1 MOL      0.127207
    140 H61        -5.3980    3.4210   -1.8550 ha        1 MOL      0.127207
    141 H62        -9.8940    1.9430   -3.4970 ha        1 MOL      0.155679
    142 H63        -5.7320    3.0020   -4.1940 ha        1 MOL      0.155679
    143 H64        -8.6420    1.3740   -5.5090 ho        1 MOL      0.372822
    144 N13        -6.3920    0.2350    0.0210 n         1 MOL     -0.131946
    145 C48        -6.6370   -1.1920   -0.0650 c3        1 MOL     -0.094725
    146 C49        -5.6620   -1.9120    0.8850 c         1 MOL      0.307726
    147 O21        -5.9850   -3.0330    1.1940 o         1 MOL     -0.549045
    148 C50        -6.5640   -1.7930   -1.4890 c3        1 MOL      0.265846
    149 C51        -7.4230   -1.0760   -2.5080 c3        1 MOL     -0.460038
    150 C52        -7.5340   -1.7080   -3.8780 c         1 MOL      0.863049
    151 O22        -8.5970   -2.1350   -4.3680 o         1 MOL     -0.777083
    152 O23        -6.5070   -1.9270   -4.5450 o         1 MOL     -0.777083
    153 H65        -5.6030    0.5990   -0.4920 hn        1 MOL      0.136992
    154 H66        -7.6720   -1.3750    0.2230 h1        1 MOL      0.110593
    155 H67        -6.8930   -2.8260   -1.3410 hc        1 MOL     -0.020868
    156 H68        -5.5350   -1.8630   -1.8470 hc        1 MOL     -0.020868
    157 H69        -6.9680   -0.0900   -2.5990 hc        1 MOL      0.062052
    158 H70        -8.4320   -1.0010   -2.0920 hc        1 MOL      0.062052
    159 N14        -4.5320   -1.3680    1.3900 n         1 MOL      0.008970
    160 C53        -3.5740   -1.9760    2.3150 c3        1 MOL     -0.395433
    161 C54        -4.0150   -1.8620    3.7210 c         1 MOL      0.509502
    162 O24        -3.3100   -2.4020    4.6260 o         1 MOL     -0.571142
    163 C55        -2.1430   -1.4010    2.1930 c3        1 MOL      0.106226
    164 C56        -1.5710   -1.8250    0.8070 c3        1 MOL      0.145050
    165 C57        -0.1810   -1.2140    0.4790 c         1 MOL      0.253777
    166 O25         0.1680   -0.1190    0.9820 o         1 MOL     -0.501477
    167 O26         0.6310   -1.7830   -0.2330 o         1 MOL     -0.501477
    168 H71        -4.4100   -0.3890    1.1890 hn        1 MOL      0.057809
    169 H72        -3.4860   -3.0330    2.0570 h1        1 MOL      0.184404
    170 H73        -1.5470   -1.8220    3.0130 hc        1 MOL      0.045144
    171 H74        -2.1150   -0.3260    2.3510 hc        1 MOL      0.045144
    172 H75        -2.3210   -1.5450    0.0650 hc        1 MOL     -0.032226
    173 H76        -1.5700   -2.9120    0.8420 hc        1 MOL     -0.032226
    174 N15        -5.1530   -1.2270    4.0090 n         1 MOL     -0.115571
    175 C58        -5.7930   -1.3310    5.3220 c3        1 MOL     -0.221571
    176 H77        -5.0490   -1.1710    6.1020 h1        1 MOL      0.082488
    177 H78        -6.5750   -0.5780    5.4070 h1        1 MOL      0.082488
    178 H79        -6.2300   -2.3240    5.4360 h1        1 MOL      0.082488
    179 H80        -5.4360   -0.5620    3.3010 hn        1 MOL      0.194897
    180 Ca1         2.4830   -0.0780   -0.0210 Ca        1 MOL      1.736743
    181 O27         5.2170    0.0290    0.9350 oh        1 MOL     -0.847722
    182 H81         5.2890   -0.9210    0.9170 ho        1 MOL      0.405523
    183 H82         6.0800    0.3290    1.2320 ho        1 MOL      0.405523
    184 O28         2.7980    0.0660    2.6440 oh        1 MOL     -0.847722
    185 H83         3.6270   -0.0180    3.1330 ho        1 MOL      0.405523
    186 H84         2.1590   -0.4140    3.1700 ho        1 MOL      0.405523
    187 O29         0.9950    1.2550   -2.0020 oh        1 MOL     -0.847722
    188 H85         1.4930    1.9730   -2.3820 ho        1 MOL      0.405523
    189 H86         1.1880    0.4950   -2.5620 ho        1 MOL      0.405523
@<TRIPOS>BOND
     1    1    2 1   
     2    1    4 1   
     3    1    5 1   
     4    1    6 1   
     5    2    3 2   
     6    2    7 1   
     7    7    8 1   
     8    7   15 1   
     9    8    9 1   
    10    8   11 1   
    11    8   16 1   
    12    9   10 2   
    13    9   19 1   
    14   11   12 1   
    15   11   17 1   
    16   11   18 1   
    17   12   13 1   
    18   12   14 1   
    19   19   20 1   
    20   19   27 1   
    21   20   21 1   
    22   20   23 1   
    23   20   28 1   
    24   21   22 2   
    25   21   38 1   
    26   23   24 1   
    27   23   25 1   
    28   23   29 1   
    29   24   26 1   
    30   24   30 1   
    31   24   31 1   
    32   25   32 1   
    33   25   33 1   
    34   25   34 1   
    35   26   35 1   
    36   26   36 1   
    37   26   37 1   
    38   38   39 1   
    39   38   46 1   
    40   39   40 1   
    41   39   42 1   
    42   39   47 1   
    43   40   41 2   
    44   40   50 1   
    45   42   43 1   
    46   42   48 1   
    47   42   49 1   
    48   43   44 1   
    49   43   45 1   
    50   50   51 1   
    51   50   54 1   
    52   51   52 1   
    53   51   55 1   
    54   51   56 1   
    55   52   53 2   
    56   52   57 1   
    57   57   58 1   
    58   57   65 1   
    59   58   59 1   
    60   58   61 1   
    61   58   66 1   
    62   59   60 2   
    63   59   69 1   
    64   61   62 1   
    65   61   67 1   
    66   61   68 1   
    67   62   63 1   
    68   62   64 1   
    69   69   70 1   
    70   69   73 1   
    71   70   71 1   
    72   70   74 1   
    73   70   75 1   
    74   71   72 2   
    75   71   76 1   
    76   76   77 1   
    77   76   85 1   
    78   77   78 1   
    79   77   80 1   
    80   77   86 1   
    81   78   79 2   
    82   78   93 1   
    83   80   81 1   
    84   80   87 1   
    85   80   88 1   
    86   81   82 1   
    87   81   89 1   
    88   81   90 1   
    89   82   83 1   
    90   82   84 2   
    91   83   91 1   
    92   83   92 1   
    93   93   94 1   
    94   93  100 1   
    95   94   95 1   
    96   94   97 1   
    97   94  101 1   
    98   95   96 2   
    99   95  109 1   
   100   97   98 1   
   101   97   99 1   
   102   97  102 1   
   103   98  103 1   
   104   98  104 1   
   105   98  105 1   
   106   99  106 1   
   107   99  107 1   
   108   99  108 1   
   109  109  110 1   
   110  109  117 1   
   111  110  111 1   
   112  110  113 1   
   113  110  118 1   
   114  111  112 2   
   115  111  123 1   
   116  113  114 1   
   117  113  119 1   
   118  113  120 1   
   119  114  115 1   
   120  114  116 2   
   121  115  121 1   
   122  115  122 1   
   123  123  124 1   
   124  123  135 1   
   125  124  125 1   
   126  124  127 1   
   127  124  136 1   
   128  125  126 2   
   129  125  144 1   
   130  127  128 1   
   131  127  137 1   
   132  127  138 1   
   133  128  129 ar  
   134  128  130 ar  
   135  129  131 ar  
   136  129  139 1   
   137  130  132 ar  
   138  130  140 1   
   139  131  133 ar  
   140  131  141 1   
   141  132  133 ar  
   142  132  142 1   
   143  133  134 1   
   144  134  143 1   
   145  144  145 1   
   146  144  153 1   
   147  145  146 1   
   148  145  148 1   
   149  145  154 1   
   150  146  147 2   
   151  146  159 1   
   152  148  149 1   
   153  148  155 1   
   154  148  156 1   
   155  149  150 1   
   156  149  157 1   
   157  149  158 1   
   158  150  151 1   
   159  150  152 1   
   160  159  160 1   
   161  159  168 1   
   162  160  161 1   
   163  160  163 1   
   164  160  169 1   
   165  161  162 2   
   166  161  174 1   
   167  163  164 1   
   168  163  170 1   
   169  163  171 1   
   170  164  165 1   
   171  164  172 1   
   172  164  173 1   
   173  165  166 1   
   174  165  167 1   
   175  174  175 1   
   176  174  179 1   
   177  175  176 1   
   178  175  177 1   
   179  175  178 1   
   180  181  182 1   
   181  181  183 1   
   182  184  185 1   
   183  184  186 1   
   184  187  188 1   
   185  187  189 1   
@<TRIPOS>SUBSTRUCTURE
     1 MOL         1 TEMP              0 ****  ****    0 ROOT
