@<TRIPOS>MOLECULE
MOL
  189   185     1     0     0
SMALL
resp


@<TRIPOS>ATOM
      1 C1          0.8670    3.5670   -5.4200 c3        1 MOL     -0.441614
      2 C2          1.0890    2.7770   -4.1070 c         1 MOL      0.694229
      3 O1          0.1120    2.5960   -3.3810 o         1 MOL     -0.573532
      4 H1          1.6760    3.3470   -6.1170 hc        1 MOL      0.106749
      5 H2         -0.0840    3.2750   -5.8650 hc        1 MOL      0.106749
      6 H3          0.8550    4.6360   -5.2050 hc        1 MOL      0.106749
      7 N1          2.2630    2.3940   -3.7240 n         1 MOL     -0.508268
      8 C3          2.5910    1.8830   -2.4710 c3        1 MOL      0.129301
      9 C4          2.8380    3.0590   -1.5030 c         1 MOL      0.323585
     10 O2          3.8620    3.7460   -1.4810 o         1 MOL     -0.503569
     11 C5          3.8100    1.0320   -2.6070 c3        1 MOL     -0.178119
     12 C6          4.3220    0.4580   -1.3140 c         1 MOL      0.783622
     13 O3          3.6300    0.5970   -0.2810 o         1 MOL     -0.646437
     14 O4          5.4530   -0.0510   -1.3310 o         1 MOL     -0.646437
     15 H4          2.9730    2.3600   -4.4510 hn        1 MOL      0.316043
     16 H5          1.8080    1.2550   -2.0740 h1        1 MOL     -0.014286
     17 H6          4.6150    1.5970   -3.0850 hc        1 MOL      0.039201
     18 H7          3.5820    0.2060   -3.2680 hc        1 MOL      0.039201
     19 N2          1.8330    3.4260   -0.6940 n         1 MOL     -0.004981
     20 C7          1.7260    4.6900    0.0500 c3        1 MOL     -0.221586
     21 C8          2.5160    4.8160    1.3600 c         1 MOL      0.622669
     22 O5          2.7460    5.9190    1.8210 o         1 MOL     -0.589095
     23 C9          0.2120    4.9430    0.2690 c3        1 MOL     -0.179391
     24 C10        -0.6820    5.0350   -1.0360 c3        1 MOL      0.152513
     25 C11        -0.1660    6.1270   -1.9650 c3        1 MOL     -0.223382
     26 C12        -1.1260    6.1200   -3.1470 c3        1 MOL      0.197822
     27 N3         -0.9270    7.4080   -3.7880 n4        1 MOL     -0.469741
     28 H8          1.0280    2.8260   -0.6610 hn        1 MOL      0.267766
     29 H9          2.1900    5.5140   -0.4920 h1        1 MOL      0.088864
     30 H10         0.0090    5.8870    0.7770 hc        1 MOL      0.053623
     31 H11        -0.2170    4.1950    0.9210 hc        1 MOL      0.053623
     32 H12        -1.7400    5.1960   -0.8140 hc        1 MOL      0.002175
     33 H13        -0.5450    4.0750   -1.5390 hc        1 MOL      0.002175
     34 H14         0.8460    5.8940   -2.3060 hc        1 MOL      0.078890
     35 H15        -0.2620    7.0150   -1.3430 hc        1 MOL      0.078890
     36 H16        -2.1820    5.9310   -2.9560 hx        1 MOL      0.062720
     37 H17        -0.8710    5.2980   -3.8220 hx        1 MOL      0.062720
     38 H18        -1.2410    8.2380   -3.3070 hn        1 MOL      0.336043
     39 H19         0.0430    7.5650   -4.0310 hn        1 MOL      0.336043
     40 H20        -1.5230    7.5170   -4.5990 hn        1 MOL      0.336043
     41 N4          3.1110    3.7140    1.8270 n         1 MOL     -0.255818
     42 C13         3.9960    3.6410    2.9880 c3        1 MOL      0.019498
     43 C14         5.3010    2.9920    2.7110 c         1 MOL      0.385395
     44 O6          6.3010    3.2480    3.3560 o         1 MOL     -0.548585
     45 C15         3.3220    2.9640    4.1650 c3        1 MOL     -0.095427
     46 C16         2.8190    1.5940    3.9900 c         1 MOL      0.824533
     47 O7          2.1630    1.1290    4.9080 o         1 MOL     -0.723389
     48 O8          3.0840    0.9710    2.9430 o         1 MOL     -0.723389
     49 H21         2.8280    2.8400    1.4070 hn        1 MOL      0.073378
     50 H22         4.1930    4.6470    3.3610 h1        1 MOL      0.092019
     51 H23         2.4960    3.6350    4.3910 hc        1 MOL      0.013541
     52 H24         4.0090    3.0500    5.0050 hc        1 MOL      0.013541
     53 N5          5.4420    2.3020    1.6050 n         1 MOL      0.159526
     54 C17         6.7690    2.0000    0.9910 c3        1 MOL     -0.189557
     55 C18         7.3660    0.7000    1.5820 c         1 MOL      0.562927
     56 O9          8.3340    0.7130    2.3310 o         1 MOL     -0.547379
     57 H25         4.5910    2.1540    1.0730 hn        1 MOL     -0.106016
     58 H26         7.4370    2.8550    1.0800 h1        1 MOL      0.083608
     59 H27         6.5700    1.9270   -0.0840 h1        1 MOL      0.083608
     60 N6          6.6770   -0.4540    1.3940 n         1 MOL     -0.373410
     61 C19         7.0100   -1.8180    1.8140 c3        1 MOL      0.162661
     62 C20         7.1100   -2.8400    0.6470 c         1 MOL      0.294529
     63 O10         7.7470   -3.8820    0.8220 o         1 MOL     -0.528982
     64 C21         5.9790   -2.1790    2.8800 c3        1 MOL     -0.201657
     65 C22         4.5430   -2.1840    2.3510 c         1 MOL      0.737183
     66 O11         4.2420   -2.2220    1.1570 o         1 MOL     -0.714513
     67 O12         3.7440   -2.1020    3.3050 o         1 MOL     -0.714513
     68 H28         5.8100   -0.2820    0.9080 hn        1 MOL      0.114071
     69 H29         7.9980   -1.8030    2.2950 h1        1 MOL      0.061029
     70 H30         6.1210   -1.5170    3.7300 hc        1 MOL      0.071789
     71 H31         6.2340   -3.1750    3.2560 hc        1 MOL      0.071789
     72 N7          6.5290   -2.6390   -0.5800 n         1 MOL     -0.038078
     73 C23         6.5000   -3.6560   -1.6040 c3        1 MOL     -0.172602
     74 C24         5.1260   -4.2010   -1.9390 c         1 MOL      0.601875
     75 O13         5.0740   -5.0700   -2.8300 o         1 MOL     -0.607295
     76 H32         6.2430   -1.6790   -0.7280 hn        1 MOL      0.134486
     77 H33         7.2000   -4.4560   -1.3470 h1        1 MOL      0.090612
     78 H34         6.8870   -3.1120   -2.4740 h1        1 MOL      0.090612
     79 N8          4.0220   -3.9020   -1.2510 n         1 MOL     -0.386490
     80 C25         2.6240   -4.3240   -1.6080 c3        1 MOL     -0.103481
     81 C26         1.6270   -3.1610   -1.6840 c         1 MOL      0.758150
     82 O14         1.8630   -2.1420   -0.9980 o         1 MOL     -0.680194
     83 C27         2.0970   -5.5200   -0.7370 c3        1 MOL      0.413239
     84 C28         2.8850   -6.8190   -1.1160 c3        1 MOL     -0.443475
     85 O15         2.1900   -5.2440    0.6060 oh        1 MOL     -0.610354
     86 H35         4.0990   -3.1410   -0.5870 hn        1 MOL      0.250781
     87 H36         2.7190   -4.7430   -2.6160 h1        1 MOL      0.067860
     88 H37         1.0500   -5.7030   -0.9920 h1        1 MOL      0.002341
     89 H38         3.1060   -5.3680    0.8860 ho        1 MOL      0.410814
     90 H39         3.9490   -6.5760   -1.1190 hc        1 MOL      0.120223
     91 H40         2.7070   -7.5480   -0.3270 hc        1 MOL      0.120223
     92 H41         2.6020   -7.1690   -2.1090 hc        1 MOL      0.120223
     93 N9          0.5160   -3.3670   -2.3370 n         1 MOL     -0.653967
     94 C29        -0.6640   -2.4520   -2.4230 c3        1 MOL      0.069657
     95 C30        -1.9880   -3.1250   -1.9400 c         1 MOL      0.500209
     96 O16        -2.5590   -3.9810   -2.6420 o         1 MOL     -0.555059
     97 C31        -0.7870   -1.8810   -3.8620 c3        1 MOL      0.276855
     98 C32         0.4700   -1.2740   -4.3790 c3        1 MOL      0.043664
     99 C33        -1.9840   -0.9250   -3.8860 c3        1 MOL     -0.295296
    100 C34         0.5290   -1.0240   -5.9270 c3        1 MOL     -0.197867
    101 H42         0.4890   -4.1000   -3.0300 hn        1 MOL      0.300503
    102 H43        -0.4260   -1.5880   -1.8060 h1        1 MOL      0.146545
    103 H44        -1.0630   -2.7230   -4.5020 hc        1 MOL     -0.039487
    104 H45         1.2860   -1.9780   -4.2140 hc        1 MOL      0.000701
    105 H46         0.6300   -0.3460   -3.8330 hc        1 MOL      0.000701
    106 H47        -2.8990   -1.4530   -3.5920 hc        1 MOL      0.043588
    107 H48        -1.9100   -0.1040   -3.1680 hc        1 MOL      0.043588
    108 H49        -2.1620   -0.5620   -4.8980 hc        1 MOL      0.043588
    109 H50         0.4720   -1.8880   -6.5780 hc        1 MOL      0.046446
    110 H51        -0.2720   -0.3570   -6.2530 hc        1 MOL      0.046446
    111 H52         1.4320   -0.5030   -6.2350 hc        1 MOL      0.046446
    112 N10        -2.4200   -2.6390   -0.8080 n         1 MOL     -0.155496
    113 C35        -3.6170   -2.9620   -0.0910 c3        1 MOL     -0.266544
    114 C36        -4.8310   -2.2140   -0.7150 c         1 MOL      0.356958
    115 O17        -4.6980   -1.1350   -1.2980 o         1 MOL     -0.288486
    116 C37        -3.4780   -2.5870    1.4260 c3        1 MOL      0.239479
    117 C38        -2.4240   -3.4280    2.2030 c3        1 MOL     -0.475756
    118 O18        -3.0520   -1.2660    1.5650 oh        1 MOL     -0.475706
    119 H53        -1.8910   -1.9170   -0.3350 hn        1 MOL      0.185006
    120 H54        -3.6730   -4.0480   -0.1700 h1        1 MOL      0.144362
    121 H55        -4.4910   -2.6870    1.8270 h1        1 MOL      0.050757
    122 H56        -2.2370   -1.1490    1.0760 ho        1 MOL      0.373019
    123 H57        -1.3780   -3.3580    1.9180 hc        1 MOL      0.138069
    124 H58        -2.5050   -3.2280    3.2810 hc        1 MOL      0.138069
    125 H59        -2.5700   -4.5000    2.0910 hc        1 MOL      0.138069
    126 N11        -6.0020   -2.8890   -0.6650 n         1 MOL     -0.270129
    127 C39        -7.3040   -2.2120   -0.7860 c3        1 MOL     -0.155736
    128 C40        -7.3510   -0.7920   -0.2750 c         1 MOL      0.347177
    129 O19        -7.8510    0.0960   -0.9250 o         1 MOL     -0.438309
    130 C41        -8.5010   -2.8960   -0.0780 c3        1 MOL      0.313453
    131 C42        -8.7730   -4.3140   -0.6800 c3        1 MOL     -0.263672
    132 O20        -8.3390   -3.0570    1.2560 oh        1 MOL     -0.596724
    133 H60        -5.9930   -3.8680   -0.4500 hn        1 MOL      0.275391
    134 H61        -7.5170   -2.1770   -1.8530 h1        1 MOL      0.131740
    135 H62        -9.4300   -2.3500   -0.2180 h1        1 MOL      0.032543
    136 H63        -9.2430   -3.1460    1.5760 ho        1 MOL      0.397815
    137 H64        -7.8050   -4.8140   -0.6830 hc        1 MOL      0.071595
    138 H65        -9.5030   -4.8980   -0.1130 hc        1 MOL      0.071595
    139 H66        -9.1710   -4.1510   -1.6840 hc        1 MOL      0.071595
    140 N12        -6.8620   -0.6580    1.0070 n         1 MOL     -0.190064
    141 C43        -6.7370    0.6330    1.7020 c3        1 MOL     -0.146163
    142 C44        -5.9940    1.6710    0.8990 c         1 MOL      0.377123
    143 O21        -6.4440    2.7300    0.7170 o         1 MOL     -0.508386
    144 C45        -6.0220    0.5080    3.0300 c3        1 MOL      0.059602
    145 C46        -6.5540   -0.5830    3.9440 c3        1 MOL      0.028550
    146 C47        -7.9620   -0.1840    4.4860 c3        1 MOL     -0.153161
    147 C48        -8.0320    1.1450    5.1920 c3        1 MOL      0.077423
    148 N13        -7.3150    1.1440    6.4630 n4        1 MOL     -0.442427
    149 H67        -6.7300   -1.5180    1.5200 hn        1 MOL      0.228571
    150 H68        -7.7330    1.0370    1.8790 h1        1 MOL      0.104907
    151 H69        -5.9850    1.4660    3.5470 hc        1 MOL      0.023153
    152 H70        -4.9680    0.3130    2.8590 hc        1 MOL      0.023153
    153 H71        -5.8790   -0.5600    4.8010 hc        1 MOL      0.002930
    154 H72        -6.6110   -1.5630    3.4550 hc        1 MOL      0.002930
    155 H73        -8.2450   -0.9970    5.1550 hc        1 MOL      0.062390
    156 H74        -8.6900   -0.1180    3.6790 hc        1 MOL      0.062390
    157 H75        -9.0880    1.3590    5.3260 hx        1 MOL      0.090171
    158 H76        -7.7390    1.9140    4.4830 hx        1 MOL      0.090171
    159 H77        -6.3200    0.9480    6.4240 hn        1 MOL      0.337503
    160 H78        -7.3000    1.9980    6.9990 hn        1 MOL      0.337503
    161 H79        -7.7210    0.4010    7.0090 hn        1 MOL      0.337503
    162 N14        -4.8900    1.2740    0.2950 n         1 MOL      0.074717
    163 C49        -4.0070    2.0900   -0.5400 c3        1 MOL     -0.253319
    164 C50        -4.6420    2.4120   -1.8890 c         1 MOL      0.560598
    165 O22        -4.4650    3.5530   -2.3180 o         1 MOL     -0.594572
    166 C51        -2.6450    1.3830   -0.6500 c3        1 MOL      0.057911
    167 C52        -1.8180    1.5590    0.5600 c3        1 MOL      0.114502
    168 C53        -0.5090    0.7600    0.5740 c         1 MOL      0.546718
    169 O23        -0.4570   -0.4940    0.5010 o         1 MOL     -0.651208
    170 O24         0.6000    1.3840    0.6310 o         1 MOL     -0.651208
    171 H80        -4.6060    0.3290    0.5060 hn        1 MOL     -0.043554
    172 H81        -3.9090    3.0390   -0.0120 h1        1 MOL      0.112279
    173 H82        -2.1590    1.7740   -1.5420 hc        1 MOL     -0.028148
    174 H83        -2.7790    0.3210   -0.8750 hc        1 MOL     -0.028148
    175 H84        -2.3660    1.3420    1.4770 hc        1 MOL     -0.037927
    176 H85        -1.5830    2.6210    0.6200 hc        1 MOL     -0.037927
    177 N15        -5.3540    1.5010   -2.5160 n         1 MOL     -0.158084
    178 C54        -6.2010    1.8320   -3.6540 c3        1 MOL     -0.241112
    179 H86        -5.6110    1.7890   -4.5700 h1        1 MOL      0.097973
    180 H87        -7.0210    1.1160   -3.7160 h1        1 MOL      0.097973
    181 H88        -6.6030    2.8370   -3.5290 h1        1 MOL      0.097973
    182 H89        -5.4010    0.5460   -2.1830 hn        1 MOL      0.199074
    183 Ca1         2.0910   -0.6500    1.3150 Ca        1 MOL      1.729650
    184 O25         0.4390   -0.2320    3.4900 oh        1 MOL     -0.875064
    185 H90         1.0300    0.3730    3.9370 ho        1 MOL      0.400943
    186 H91        -0.0890   -0.6160    4.1890 ho        1 MOL      0.400943
    187 O26         1.0180   -3.0730    1.9230 oh        1 MOL     -0.875064
    188 H92         1.3950   -3.8290    1.4760 ho        1 MOL      0.400943
    189 H93         1.1990   -3.2310    2.8460 ho        1 MOL      0.400943
@<TRIPOS>BOND
     1    1    2 1   
     2    1    4 1   
     3    1    5 1   
     4    1    6 1   
     5    2    3 2   
     6    2    7 1   
     7    7    8 1   
     8    7   15 1   
     9    8    9 1   
    10    8   11 1   
    11    8   16 1   
    12    9   10 2   
    13    9   19 1   
    14   11   12 1   
    15   11   17 1   
    16   11   18 1   
    17   12   13 1   
    18   12   14 1   
    19   19   20 1   
    20   19   28 1   
    21   20   21 1   
    22   20   23 1   
    23   20   29 1   
    24   21   22 2   
    25   21   41 1   
    26   23   24 1   
    27   23   30 1   
    28   23   31 1   
    29   24   25 1   
    30   24   32 1   
    31   24   33 1   
    32   25   26 1   
    33   25   34 1   
    34   25   35 1   
    35   26   27 1   
    36   26   36 1   
    37   26   37 1   
    38   27   38 1   
    39   27   39 1   
    40   27   40 1   
    41   41   42 1   
    42   41   49 1   
    43   42   43 1   
    44   42   45 1   
    45   42   50 1   
    46   43   44 2   
    47   43   53 1   
    48   45   46 1   
    49   45   51 1   
    50   45   52 1   
    51   46   47 1   
    52   46   48 1   
    53   53   54 1   
    54   53   57 1   
    55   54   55 1   
    56   54   58 1   
    57   54   59 1   
    58   55   56 2   
    59   55   60 1   
    60   60   61 1   
    61   60   68 1   
    62   61   62 1   
    63   61   64 1   
    64   61   69 1   
    65   62   63 2   
    66   62   72 1   
    67   64   65 1   
    68   64   70 1   
    69   64   71 1   
    70   65   66 1   
    71   65   67 1   
    72   72   73 1   
    73   72   76 1   
    74   73   74 1   
    75   73   77 1   
    76   73   78 1   
    77   74   75 2   
    78   74   79 1   
    79   79   80 1   
    80   79   86 1   
    81   80   81 1   
    82   80   83 1   
    83   80   87 1   
    84   81   82 2   
    85   81   93 1   
    86   83   84 1   
    87   83   85 1   
    88   83   88 1   
    89   84   90 1   
    90   84   91 1   
    91   84   92 1   
    92   85   89 1   
    93   93   94 1   
    94   93  101 1   
    95   94   95 1   
    96   94   97 1   
    97   94  102 1   
    98   95   96 2   
    99   95  112 1   
   100   97   98 1   
   101   97   99 1   
   102   97  103 1   
   103   98  100 1   
   104   98  104 1   
   105   98  105 1   
   106   99  106 1   
   107   99  107 1   
   108   99  108 1   
   109  100  109 1   
   110  100  110 1   
   111  100  111 1   
   112  112  113 1   
   113  112  119 1   
   114  113  114 1   
   115  113  116 1   
   116  113  120 1   
   117  114  115 2   
   118  114  126 1   
   119  116  117 1   
   120  116  118 1   
   121  116  121 1   
   122  117  123 1   
   123  117  124 1   
   124  117  125 1   
   125  118  122 1   
   126  126  127 1   
   127  126  133 1   
   128  127  128 1   
   129  127  130 1   
   130  127  134 1   
   131  128  129 2   
   132  128  140 1   
   133  130  131 1   
   134  130  132 1   
   135  130  135 1   
   136  131  137 1   
   137  131  138 1   
   138  131  139 1   
   139  132  136 1   
   140  140  141 1   
   141  140  149 1   
   142  141  142 1   
   143  141  144 1   
   144  141  150 1   
   145  142  143 2   
   146  142  162 1   
   147  144  145 1   
   148  144  151 1   
   149  144  152 1   
   150  145  146 1   
   151  145  153 1   
   152  145  154 1   
   153  146  147 1   
   154  146  155 1   
   155  146  156 1   
   156  147  148 1   
   157  147  157 1   
   158  147  158 1   
   159  148  159 1   
   160  148  160 1   
   161  148  161 1   
   162  162  163 1   
   163  162  171 1   
   164  163  164 1   
   165  163  166 1   
   166  163  172 1   
   167  164  165 2   
   168  164  177 1   
   169  166  167 1   
   170  166  173 1   
   171  166  174 1   
   172  167  168 1   
   173  167  175 1   
   174  167  176 1   
   175  168  169 1   
   176  168  170 1   
   177  177  178 1   
   178  177  182 1   
   179  178  179 1   
   180  178  180 1   
   181  178  181 1   
   182  184  185 1   
   183  184  186 1   
   184  187  188 1   
   185  187  189 1   
@<TRIPOS>SUBSTRUCTURE
     1 MOL         1 TEMP              0 ****  ****    0 ROOT
