@<TRIPOS>MOLECULE
MOL
  179   176     1     0     0
SMALL
resp


@<TRIPOS>ATOM
      1 C1          1.5690    2.8450    5.9110 c3        1 MOL     -0.269990
      2 C2          1.0860    2.5310    4.5020 c         1 MOL      0.662565
      3 O1          1.8060    2.5210    3.4960 o         1 MOL     -0.576244
      4 H1          2.6320    3.0830    5.8850 hc        1 MOL      0.067589
      5 H2          1.0160    3.6990    6.3030 hc        1 MOL      0.067589
      6 H3          1.4050    1.9790    6.5530 hc        1 MOL      0.067589
      7 N1         -0.1930    2.2810    4.3930 n         1 MOL     -0.442247
      8 C3         -0.8390    2.0730    3.1160 c3        1 MOL     -0.055357
      9 C4         -1.1860    3.3620    2.4110 c         1 MOL      0.528265
     10 O2         -2.1500    4.0610    2.7460 o         1 MOL     -0.527686
     11 C5         -2.0920    1.2770    3.3580 c3        1 MOL     -0.134817
     12 C6         -2.9010    0.8660    2.1010 c         1 MOL      0.667070
     13 O3         -2.4420    0.5700    0.9660 o         1 MOL     -0.701595
     14 O4         -4.1050    0.6630    2.2930 o         1 MOL     -0.701595
     15 H4         -0.7770    2.2670    5.2140 hn        1 MOL      0.292436
     16 H5         -0.1620    1.5670    2.4370 h1        1 MOL      0.063874
     17 H6         -2.7440    1.8200    4.0460 hc        1 MOL      0.064692
     18 H7         -1.7890    0.3680    3.8840 hc        1 MOL      0.064692
     19 N2         -0.5400    3.6330    1.2260 n         1 MOL     -0.344358
     20 C7         -0.5290    5.0200    0.6820 c3        1 MOL      0.047453
     21 C8         -1.7130    5.4810   -0.1430 c         1 MOL      0.234583
     22 O5         -2.0480    6.6320   -0.1060 o         1 MOL     -0.521564
     23 C9          0.7120    5.1580   -0.1790 c3        1 MOL     -0.024046
     24 C10         1.0850    6.5300   -0.8140 c3        1 MOL     -0.117235
     25 C11         1.6400    7.6730    0.1470 c3        1 MOL      0.096023
     26 C12         1.8160    8.9720   -0.7620 c3        1 MOL     -0.083480
     27 N3          3.1180    9.6160   -0.3520 n4        1 MOL     -0.270040
     28 H8          0.1120    2.9260    0.9060 hn        1 MOL      0.206539
     29 H9         -0.3860    5.7100    1.5080 h1        1 MOL      0.102713
     30 H10         0.6490    4.4730   -1.0200 hc        1 MOL      0.026314
     31 H11         1.6180    4.8940    0.3730 hc        1 MOL      0.026314
     32 H12         0.3020    6.9200   -1.4630 hc        1 MOL      0.044895
     33 H13         1.8820    6.3240   -1.5230 hc        1 MOL      0.044895
     34 H14         2.6020    7.4050    0.5880 hc        1 MOL      0.022645
     35 H15         0.9610    7.9010    0.9650 hc        1 MOL      0.022645
     36 H16         1.1110    9.7680   -0.5380 hx        1 MOL      0.120352
     37 H17         1.8920    8.6970   -1.8120 hx        1 MOL      0.120352
     38 H18         3.8850    8.9970   -0.5590 hn        1 MOL      0.299557
     39 H19         3.3690   10.3580   -0.9900 hn        1 MOL      0.299557
     40 H20         3.1180    9.9500    0.6110 hn        1 MOL      0.299557
     41 N4         -2.2170    4.6730   -1.0730 n         1 MOL     -0.008211
     42 C13        -3.3420    4.8720   -1.9280 c3        1 MOL     -0.000430
     43 C14        -4.6740    4.5640   -1.2310 c         1 MOL      0.440038
     44 O6         -5.7030    4.9630   -1.7530 o         1 MOL     -0.519545
     45 C15        -3.1560    4.1760   -3.2560 c3        1 MOL     -0.159628
     46 C16        -2.8960    2.6340   -3.0770 c         1 MOL      0.735404
     47 O7         -2.9690    1.9360   -4.1340 o         1 MOL     -0.713120
     48 O8         -2.4440    2.2310   -1.9960 o         1 MOL     -0.713120
     49 H21        -1.8780    3.7240   -1.0970 hn        1 MOL      0.051334
     50 H22        -3.3300    5.9500   -2.1200 h1        1 MOL      0.061978
     51 H23        -2.2930    4.7230   -3.6310 hc        1 MOL      0.046060
     52 H24        -3.9390    4.3060   -4.0000 hc        1 MOL      0.046060
     53 N5         -4.5870    3.7940   -0.1450 n         1 MOL     -0.193024
     54 C17        -5.7860    3.2560    0.5250 c3        1 MOL     -0.277875
     55 C18        -6.5240    2.3010   -0.3600 c         1 MOL      0.721483
     56 O9         -7.6480    2.5900   -0.7440 o         1 MOL     -0.569868
     57 H25        -3.6920    3.3550    0.0030 hn        1 MOL      0.292628
     58 H26        -6.5020    4.0260    0.8390 h1        1 MOL      0.116897
     59 H27        -5.5070    2.7040    1.4130 h1        1 MOL      0.116897
     60 N6         -5.9130    1.1010   -0.4210 n         1 MOL     -0.392434
     61 C19        -6.5760   -0.1440   -0.9480 c3        1 MOL     -0.016122
     62 C20        -6.3420   -1.3480   -0.0910 c         1 MOL      0.238161
     63 O10        -6.7970   -2.4270   -0.4870 o         1 MOL     -0.412518
     64 C21        -6.1390   -0.3900   -2.3650 c3        1 MOL     -0.359706
     65 C22        -4.7810   -1.0740   -2.4270 c         1 MOL      0.609368
     66 N7         -4.6090   -2.1440   -3.1610 n         1 MOL     -0.637680
     67 O11        -3.7930   -0.7130   -1.6870 o         1 MOL     -0.569102
     68 H28        -5.0610    1.0250    0.1050 hn        1 MOL      0.114881
     69 H29        -7.6560   -0.0330   -1.0780 h1        1 MOL      0.152656
     70 H30        -6.0280    0.5960   -2.8150 hc        1 MOL      0.155162
     71 H31        -6.8790   -1.0400   -2.8260 hc        1 MOL      0.155162
     72 H32        -5.2450   -2.4710   -3.8700 hn        1 MOL      0.333010
     73 H33        -3.6660   -2.4970   -3.1760 hn        1 MOL      0.333010
     74 N8         -5.7820   -1.3020    1.1310 n         1 MOL     -0.119447
     75 C23        -5.8340   -2.4320    2.0730 c3        1 MOL     -0.248287
     76 C24        -4.5250   -3.2240    2.1950 c         1 MOL      0.689745
     77 O12        -4.3520   -4.0980    3.0870 o         1 MOL     -0.595031
     78 H34        -5.5270   -0.4140    1.5560 hn        1 MOL      0.273375
     79 H35        -6.7010   -3.0010    1.7370 h1        1 MOL      0.116511
     80 H36        -6.0290   -2.0920    3.0880 h1        1 MOL      0.116511
     81 N9         -3.6130   -2.9440    1.2530 n         1 MOL     -0.477992
     82 C25        -2.3830   -3.7990    1.0640 c3        1 MOL     -0.092032
     83 C26        -1.0680   -3.0120    0.8360 c         1 MOL      0.768778
     84 O13        -1.0620   -1.9630    0.2320 o         1 MOL     -0.712445
     85 C27        -2.6320   -4.7350   -0.1330 c3        1 MOL      0.117978
     86 C28        -3.9730   -5.4460   -0.2540 ca        1 MOL      0.030145
     87 C29        -4.8020   -5.1810   -1.3800 ca        1 MOL     -0.212394
     88 C30        -4.3250   -6.3410    0.6840 ca        1 MOL     -0.212394
     89 C31        -6.0720   -5.7580   -1.4500 ca        1 MOL     -0.187399
     90 C32        -5.6000   -6.9580    0.6840 ca        1 MOL     -0.187399
     91 C33        -6.4620   -6.6740   -0.4050 ca        1 MOL      0.242867
     92 O14        -7.6940   -7.1310   -0.2910 oh        1 MOL     -0.464859
     93 H37        -3.8420   -2.2500    0.5490 hn        1 MOL      0.375942
     94 H38        -2.1960   -4.3820    1.9750 h1        1 MOL      0.094145
     95 H39        -1.7810   -5.4090   -0.2720 hc        1 MOL     -0.026531
     96 H40        -2.5600   -4.0770   -0.9940 hc        1 MOL     -0.026531
     97 H41        -4.3930   -4.5750   -2.1770 ha        1 MOL      0.140031
     98 H42        -3.6310   -6.6510    1.4430 ha        1 MOL      0.140031
     99 H43        -6.6860   -5.5960   -2.3250 ha        1 MOL      0.138685
    100 H44        -5.9270   -7.6270    1.4620 ha        1 MOL      0.138685
    101 H45        -7.8080   -7.8350    0.3600 ho        1 MOL      0.371449
    102 N10         0.1050   -3.5140    1.2300 n         1 MOL     -0.533474
    103 C34         1.4510   -2.8730    1.2050 c3        1 MOL     -0.081775
    104 C35         2.4100   -3.8010    0.3980 c         1 MOL      0.572704
    105 O15         2.6310   -4.9310    0.7870 o         1 MOL     -0.524774
    106 C36         1.9400   -2.4630    2.5880 c3        1 MOL      0.204384
    107 C37         0.8230   -1.7020    3.3300 c3        1 MOL      0.039933
    108 C38         3.2110   -1.6390    2.5350 c3        1 MOL     -0.288412
    109 C39         1.2910   -1.3690    4.7730 c3        1 MOL     -0.327420
    110 H46         0.0220   -4.2560    1.9150 hn        1 MOL      0.275175
    111 H47         1.4080   -2.0130    0.5400 h1        1 MOL      0.108739
    112 H48         2.1840   -3.3500    3.1770 hc        1 MOL      0.004594
    113 H49        -0.0770   -2.3130    3.4020 hc        1 MOL      0.021434
    114 H50         0.6260   -0.6850    2.9890 hc        1 MOL      0.021434
    115 H51         3.0290   -0.6270    2.1550 hc        1 MOL      0.060232
    116 H52         3.6240   -1.6630    3.5400 hc        1 MOL      0.060232
    117 H53         3.9850   -2.0830    1.9210 hc        1 MOL      0.060232
    118 H54         1.9580   -0.5120    4.6530 hc        1 MOL      0.081542
    119 H55         0.4760   -1.0860    5.4360 hc        1 MOL      0.081542
    120 H56         1.8730   -2.1340    5.2840 hc        1 MOL      0.081542
    121 N11         2.9810   -3.3430   -0.7420 n         1 MOL     -0.397537
    122 C40         4.1760   -3.8510   -1.3410 c3        1 MOL     -0.010106
    123 C41         5.5510   -3.4150   -0.7330 c         1 MOL      0.517699
    124 O16         5.5380   -2.4250   -0.0340 o         1 MOL     -0.316069
    125 C42         4.2850   -3.5240   -2.7940 c3        1 MOL     -0.125134
    126 O17         4.6650   -2.2320   -3.0700 oh        1 MOL     -0.516456
    127 H57         2.6520   -2.4900   -1.1830 hn        1 MOL      0.326517
    128 H58         4.1680   -4.9270   -1.1950 h1        1 MOL      0.067509
    129 H59         3.2740   -3.6720   -3.1870 h1        1 MOL      0.092256
    130 H60         4.9310   -4.2100   -3.3340 h1        1 MOL      0.092256
    131 H61         4.2220   -2.0420   -3.9050 ho        1 MOL      0.408116
    132 N12         6.6950   -3.9880   -1.0410 n         1 MOL     -0.472097
    133 C43         7.8530   -3.6510   -0.2340 c3        1 MOL      0.064152
    134 C44         8.5010   -2.2750   -0.6180 c         1 MOL      0.434215
    135 O18         9.2410   -1.7440    0.2510 o         1 MOL     -0.515237
    136 C45         8.8820   -4.7520   -0.3570 c3        1 MOL     -0.363729
    137 H62         6.8810   -4.6250   -1.8010 hn        1 MOL      0.302794
    138 H63         7.5280   -3.5900    0.8000 h1        1 MOL      0.126708
    139 H64         9.2330   -4.7620   -1.3860 hc        1 MOL      0.114066
    140 H65         9.7750   -4.6530    0.2580 hc        1 MOL      0.114066
    141 H66         8.4440   -5.7160   -0.1050 hc        1 MOL      0.114066
    142 N13         8.3100   -1.6850   -1.8030 n         1 MOL     -0.295339
    143 C46         8.7570   -0.3040   -2.0310 c3        1 MOL      0.065750
    144 C47         7.7880    0.6630   -1.3280 c         1 MOL      0.403123
    145 O19         8.2380    1.6970   -0.7730 o         1 MOL     -0.517666
    146 C48         8.8750   -0.0160   -3.5430 c3        1 MOL     -0.287728
    147 H67         8.0220   -2.2460   -2.6030 hn        1 MOL      0.267283
    148 H68         9.7180   -0.1880   -1.5270 h1        1 MOL      0.107068
    149 H69         9.6770   -0.6560   -3.9260 hc        1 MOL      0.083678
    150 H70         8.0550   -0.3530   -4.1750 hc        1 MOL      0.083678
    151 H71         9.0570    1.0480   -3.6610 hc        1 MOL      0.083678
    152 N14         6.5040    0.3740   -1.2860 n         1 MOL     -0.116698
    153 C49         5.4970    1.0310   -0.4600 c3        1 MOL     -0.301072
    154 C50         5.8660    0.8920    1.0020 c         1 MOL      0.535452
    155 O20         5.7370    1.8030    1.8140 o         1 MOL     -0.568919
    156 C51         4.0760    0.4430   -0.7480 c3        1 MOL     -0.088238
    157 C52         2.9330    1.3660   -0.1760 c3        1 MOL     -0.078644
    158 C53         1.5690    0.8770   -0.7340 c         1 MOL      0.698877
    159 O21         0.5820    1.5880   -0.5750 o         1 MOL     -0.721409
    160 O22         1.4580   -0.1640   -1.4080 o         1 MOL     -0.721409
    161 H72         6.2800   -0.5050   -1.7180 hn        1 MOL      0.085538
    162 H73         5.5510    2.0750   -0.7680 h1        1 MOL      0.149696
    163 H74         4.0760   -0.5520   -0.2990 hc        1 MOL      0.059809
    164 H75         3.9220    0.3190   -1.8220 hc        1 MOL      0.059809
    165 H76         3.0390    2.3840   -0.5360 hc        1 MOL      0.067511
    166 H77         2.8790    1.4280    0.9100 hc        1 MOL      0.067511
    167 N15         6.3850   -0.2390    1.4990 n         1 MOL     -0.016016
    168 C54         7.1130   -0.3550    2.8240 c3        1 MOL     -0.245717
    169 H78         8.1430   -0.0180    2.7020 h1        1 MOL      0.102758
    170 H79         6.6140    0.2650    3.5690 h1        1 MOL      0.102758
    171 H80         7.1080   -1.3940    3.1530 h1        1 MOL      0.102758
    172 H81         6.4490   -1.0130    0.8540 hn        1 MOL      0.029185
    173 Ca1        -1.3900    0.0770   -1.2760 Ca        1 MOL      1.699842
    174 O23        -0.5010    0.8340   -3.8070 oh        1 MOL     -0.789536
    175 H82         0.2680    1.3560   -4.0270 ho        1 MOL      0.386450
    176 H83        -1.2390    1.3500   -4.1400 ho        1 MOL      0.386450
    177 O24        -1.0250   -1.9000   -3.0330 oh        1 MOL     -0.789536
    178 H84        -0.9920   -1.6130   -3.9480 ho        1 MOL      0.386450
    179 H85        -0.4110   -2.6330   -2.9940 ho        1 MOL      0.386450
@<TRIPOS>BOND
     1    1    2 1   
     2    1    4 1   
     3    1    5 1   
     4    1    6 1   
     5    2    3 2   
     6    2    7 1   
     7    7    8 1   
     8    7   15 1   
     9    8    9 1   
    10    8   11 1   
    11    8   16 1   
    12    9   10 2   
    13    9   19 1   
    14   11   12 1   
    15   11   17 1   
    16   11   18 1   
    17   12   13 1   
    18   12   14 1   
    19   19   20 1   
    20   19   28 1   
    21   20   21 1   
    22   20   23 1   
    23   20   29 1   
    24   21   22 2   
    25   21   41 1   
    26   23   24 1   
    27   23   30 1   
    28   23   31 1   
    29   24   25 1   
    30   24   32 1   
    31   24   33 1   
    32   25   26 1   
    33   25   34 1   
    34   25   35 1   
    35   26   27 1   
    36   26   36 1   
    37   26   37 1   
    38   27   38 1   
    39   27   39 1   
    40   27   40 1   
    41   41   42 1   
    42   41   49 1   
    43   42   43 1   
    44   42   45 1   
    45   42   50 1   
    46   43   44 2   
    47   43   53 1   
    48   45   46 1   
    49   45   51 1   
    50   45   52 1   
    51   46   47 1   
    52   46   48 1   
    53   53   54 1   
    54   53   57 1   
    55   54   55 1   
    56   54   58 1   
    57   54   59 1   
    58   55   56 2   
    59   55   60 1   
    60   60   61 1   
    61   60   68 1   
    62   61   62 1   
    63   61   64 1   
    64   61   69 1   
    65   62   63 2   
    66   62   74 1   
    67   64   65 1   
    68   64   70 1   
    69   64   71 1   
    70   65   66 1   
    71   65   67 2   
    72   66   72 1   
    73   66   73 1   
    74   74   75 1   
    75   74   78 1   
    76   75   76 1   
    77   75   79 1   
    78   75   80 1   
    79   76   77 2   
    80   76   81 1   
    81   81   82 1   
    82   81   93 1   
    83   82   83 1   
    84   82   85 1   
    85   82   94 1   
    86   83   84 2   
    87   83  102 1   
    88   85   86 1   
    89   85   95 1   
    90   85   96 1   
    91   86   87 ar  
    92   86   88 ar  
    93   87   89 ar  
    94   87   97 1   
    95   88   90 ar  
    96   88   98 1   
    97   89   91 ar  
    98   89   99 1   
    99   90   91 ar  
   100   90  100 1   
   101   91   92 1   
   102   92  101 1   
   103  102  103 1   
   104  102  110 1   
   105  103  104 1   
   106  103  106 1   
   107  103  111 1   
   108  104  105 2   
   109  104  121 1   
   110  106  107 1   
   111  106  108 1   
   112  106  112 1   
   113  107  109 1   
   114  107  113 1   
   115  107  114 1   
   116  108  115 1   
   117  108  116 1   
   118  108  117 1   
   119  109  118 1   
   120  109  119 1   
   121  109  120 1   
   122  121  122 1   
   123  121  127 1   
   124  122  123 1   
   125  122  125 1   
   126  122  128 1   
   127  123  124 2   
   128  123  132 1   
   129  125  126 1   
   130  125  129 1   
   131  125  130 1   
   132  126  131 1   
   133  132  133 1   
   134  132  137 1   
   135  133  134 1   
   136  133  136 1   
   137  133  138 1   
   138  134  135 2   
   139  134  142 1   
   140  136  139 1   
   141  136  140 1   
   142  136  141 1   
   143  142  143 1   
   144  142  147 1   
   145  143  144 1   
   146  143  146 1   
   147  143  148 1   
   148  144  145 2   
   149  144  152 1   
   150  146  149 1   
   151  146  150 1   
   152  146  151 1   
   153  152  153 1   
   154  152  161 1   
   155  153  154 1   
   156  153  156 1   
   157  153  162 1   
   158  154  155 2   
   159  154  167 1   
   160  156  157 1   
   161  156  163 1   
   162  156  164 1   
   163  157  158 1   
   164  157  165 1   
   165  157  166 1   
   166  158  159 1   
   167  158  160 1   
   168  167  168 1   
   169  167  172 1   
   170  168  169 1   
   171  168  170 1   
   172  168  171 1   
   173  174  175 1   
   174  174  176 1   
   175  177  178 1   
   176  177  179 1   
@<TRIPOS>SUBSTRUCTURE
     1 MOL         1 TEMP              0 ****  ****    0 ROOT
