@<TRIPOS>MOLECULE
MOL
  189   185     1     0     0
SMALL
resp


@<TRIPOS>ATOM
      1 C1          0.6590   -4.8630    5.3100 c3        1 MOL     -0.460849
      2 C2          1.1770   -4.0870    4.1020 c         1 MOL      0.715648
      3 O1          1.2010   -2.8550    4.1020 o         1 MOL     -0.590978
      4 H1         -0.4290   -4.8070    5.3380 hc        1 MOL      0.122165
      5 H2          0.9680   -5.9050    5.2330 hc        1 MOL      0.122165
      6 H3          1.0690   -4.4300    6.2230 hc        1 MOL      0.122165
      7 N1          1.8530   -4.7350    3.1400 n         1 MOL     -0.526831
      8 C3          2.5540   -4.0870    2.0600 c3        1 MOL      0.231899
      9 C4          2.4900   -5.0360    0.8370 c         1 MOL      0.386298
     10 O2          2.9670   -6.2270    0.9270 o         1 MOL     -0.563479
     11 C5          4.0160   -3.7310    2.4550 c3        1 MOL     -0.439269
     12 C6          4.6690   -2.7260    1.5410 c         1 MOL      0.859715
     13 O3          5.7760   -2.2610    1.9700 o         1 MOL     -0.714809
     14 O4          4.1210   -2.3540    0.4750 o         1 MOL     -0.714809
     15 H4          1.8340   -5.7440    3.0370 hn        1 MOL      0.270456
     16 H5          1.9800   -3.1740    1.9120 h1        1 MOL      0.077346
     17 H6          4.5590   -4.6770    2.4160 hc        1 MOL      0.109943
     18 H7          4.0350   -3.3420    3.4730 hc        1 MOL      0.109943
     19 N2          2.0410   -4.4640   -0.2840 n         1 MOL     -0.090236
     20 C7          1.9170   -5.2740   -1.4900 c3        1 MOL     -0.206666
     21 C8          2.8650   -4.8410   -2.5870 c         1 MOL      0.566613
     22 O5          3.0420   -5.6120   -3.5470 o         1 MOL     -0.580211
     23 C9          0.4040   -5.3760   -1.9000 c3        1 MOL      0.169660
     24 C10        -0.2530   -4.0960   -2.6010 c3        1 MOL      0.000447
     25 C11        -0.5000   -5.8010   -0.7630 c3        1 MOL     -0.130460
     26 C12        -1.6950   -4.2470   -3.2610 c3        1 MOL     -0.265115
     27 H8          1.7310   -3.5100   -0.2740 hn        1 MOL      0.188517
     28 H9          2.1780   -6.2780   -1.1440 h1        1 MOL      0.106471
     29 H10         0.3260   -6.1960   -2.6130 hc        1 MOL     -0.014605
     30 H11         0.4960   -3.8100   -3.3330 hc        1 MOL      0.025761
     31 H12        -0.2510   -3.3060   -1.8480 hc        1 MOL      0.025761
     32 H13        -1.5530   -5.8320   -1.0440 hc        1 MOL      0.014931
     33 H14        -0.2630   -6.8110   -0.4480 hc        1 MOL      0.014931
     34 H15        -0.3970   -5.2220    0.1500 hc        1 MOL      0.014931
     35 H16        -2.0310   -3.2780   -3.6310 hc        1 MOL      0.076560
     36 H17        -1.5470   -4.8920   -4.1230 hc        1 MOL      0.076560
     37 H18        -2.4010   -4.6140   -2.5200 hc        1 MOL      0.076560
     38 N3          3.3840   -3.5710   -2.5040 n         1 MOL     -0.404273
     39 C13         4.1790   -2.9890   -3.5910 c3        1 MOL      0.112547
     40 C14         5.5320   -2.3710   -3.1410 c         1 MOL      0.263632
     41 O6          6.3460   -2.0010   -3.9930 o         1 MOL     -0.499132
     42 C15         3.3170   -1.9480   -4.2360 c3        1 MOL     -0.180899
     43 C16         2.5780   -1.0740   -3.1960 c         1 MOL      0.702892
     44 O7          3.1920   -0.7490   -2.0860 o         1 MOL     -0.678857
     45 O8          1.4480   -0.6290   -3.4680 o         1 MOL     -0.678857
     46 H19         3.1070   -2.9770   -1.7370 hn        1 MOL      0.219610
     47 H20         4.4230   -3.6990   -4.3720 h1        1 MOL      0.087780
     48 H21         2.7000   -2.4000   -5.0090 hc        1 MOL      0.053087
     49 H22         3.9840   -1.3690   -4.8640 hc        1 MOL      0.053087
     50 N4          5.6960   -2.1630   -1.8250 n         1 MOL     -0.080275
     51 C17         6.9850   -1.6930   -1.2690 c3        1 MOL     -0.085923
     52 C18         7.3450   -0.2260   -1.5920 c         1 MOL      0.386655
     53 O9          8.4870    0.1200   -2.0250 o         1 MOL     -0.576175
     54 H23         4.9560   -2.4530   -1.2020 hn        1 MOL      0.088550
     55 H24         7.8340   -2.2900   -1.6330 h1        1 MOL      0.071727
     56 H25         6.9220   -1.8230   -0.1920 h1        1 MOL      0.071727
     57 N5          6.3450    0.6870   -1.6030 n         1 MOL     -0.099194
     58 C19         6.5720    2.1320   -1.9470 c3        1 MOL     -0.123603
     59 C20         6.7970    3.0600   -0.7550 c         1 MOL      0.432312
     60 O10         7.0260    4.2620   -0.9970 o         1 MOL     -0.533321
     61 C21         5.3030    2.6320   -2.6620 c3        1 MOL     -0.167532
     62 C22         3.9670    2.4830   -1.9280 c         1 MOL      0.635304
     63 O11         3.8540    1.8910   -0.8160 o         1 MOL     -0.621345
     64 O12         2.9640    2.8850   -2.5970 o         1 MOL     -0.621345
     65 H26         5.4240    0.3730   -1.3220 hn        1 MOL      0.161878
     66 H27         7.4090    2.2620   -2.6360 h1        1 MOL      0.152027
     67 H28         5.1840    2.1270   -3.6160 hc        1 MOL      0.066245
     68 H29         5.4840    3.6570   -3.0080 hc        1 MOL      0.066245
     69 N6          6.7500    2.5890    0.4860 n         1 MOL     -0.300993
     70 C23         6.7700    3.4580    1.6700 c3        1 MOL     -0.085243
     71 C24         5.5480    4.2650    1.9310 c         1 MOL      0.469959
     72 O13         5.6840    5.3340    2.5720 o         1 MOL     -0.603135
     73 H30         6.5540    1.6100    0.6290 hn        1 MOL      0.225250
     74 H31         7.6580    4.0830    1.7080 h1        1 MOL      0.076093
     75 H32         6.8070    2.7930    2.5280 h1        1 MOL      0.076093
     76 N7          4.4470    3.8700    1.4060 n         1 MOL     -0.320390
     77 C25         3.1150    4.4390    1.6490 c3        1 MOL      0.051267
     78 C26         2.0850    3.3180    1.8910 c         1 MOL      0.562445
     79 O14         2.4010    2.1650    1.9570 o         1 MOL     -0.626188
     80 C27         2.7330    5.2990    0.4910 c3        1 MOL     -0.182288
     81 C28         3.7020    6.5180    0.2620 c3        1 MOL     -0.056543
     82 C29         3.1800    7.4700   -0.8200 c         1 MOL      0.644135
     83 N8          4.0390    8.4620   -1.1070 n         1 MOL     -0.837446
     84 O15         2.1040    7.4040   -1.3450 o         1 MOL     -0.545734
     85 H33         4.5630    3.1830    0.6680 hn        1 MOL      0.311335
     86 H34         3.1990    5.0550    2.5430 h1        1 MOL      0.056917
     87 H35         1.8020    5.8070    0.7320 hc        1 MOL      0.066759
     88 H36         2.6100    4.6390   -0.3760 hc        1 MOL      0.066759
     89 H37         4.6460    6.1380   -0.1310 hc        1 MOL      0.052192
     90 H38         3.8250    7.0690    1.1910 hc        1 MOL      0.052192
     91 H39         4.9680    8.4220   -0.7020 hn        1 MOL      0.360569
     92 H40         3.6450    9.1200   -1.7640 hn        1 MOL      0.360569
     93 N9          0.7630    3.6760    1.9790 n         1 MOL     -0.469339
     94 C30        -0.3530    2.7190    2.2150 c3        1 MOL      0.125834
     95 C31        -1.5510    2.8260    1.2730 c         1 MOL      0.362901
     96 O16        -2.1580    3.9030    1.2560 o         1 MOL     -0.587819
     97 C32        -0.8360    2.9240    3.6750 c3        1 MOL      0.238118
     98 C33        -1.9890    2.0120    3.9680 c3        1 MOL     -0.277228
     99 C34         0.2000    2.5870    4.7140 c3        1 MOL     -0.277228
    100 H41         0.5890    4.6420    2.1900 hn        1 MOL      0.269752
    101 H42        -0.0300    1.6840    2.1220 h1        1 MOL      0.059676
    102 H43        -1.1640    3.9390    3.9030 hc        1 MOL     -0.012992
    103 H44        -2.2580    1.9860    5.0280 hc        1 MOL      0.053832
    104 H45        -2.8870    2.2960    3.4220 hc        1 MOL      0.053832
    105 H46        -1.7510    0.9630    3.7640 hc        1 MOL      0.053832
    106 H47        -0.2920    2.5770    5.6880 hc        1 MOL      0.053832
    107 H48         0.7610    1.6530    4.5950 hc        1 MOL      0.053832
    108 H49         0.9440    3.3760    4.6490 hc        1 MOL      0.053832
    109 N10        -1.9870    1.8310    0.5280 n         1 MOL     -0.126866
    110 C35        -3.1070    1.9280   -0.4080 c3        1 MOL      0.221655
    111 C36        -4.4190    1.4140    0.1280 c         1 MOL      0.182622
    112 O17        -4.4750    0.8290    1.2320 o         1 MOL     -0.308426
    113 C37        -2.6740    1.4530   -1.7970 c3        1 MOL     -0.146497
    114 C38        -2.7890   -0.0260   -1.9430 c         1 MOL      0.411780
    115 N11        -1.6670   -0.7320   -1.9560 n         1 MOL     -0.288977
    116 O18        -3.8270   -0.5960   -2.1980 o         1 MOL     -0.515078
    117 H50        -1.4650    0.9700    0.6280 hn        1 MOL      0.152859
    118 H51        -3.2950    2.9840   -0.5660 h1        1 MOL      0.032182
    119 H52        -1.6640    1.8680   -1.8990 hc        1 MOL      0.064095
    120 H53        -3.1370    2.0140   -2.6100 hc        1 MOL      0.064095
    121 H54        -0.7500   -0.3190   -1.8570 hn        1 MOL      0.200255
    122 H55        -1.6530   -1.7030   -2.2470 hn        1 MOL      0.200255
    123 N12        -5.4490    1.5990   -0.6400 n         1 MOL     -0.178395
    124 C39        -6.8650    1.1170   -0.2880 c3        1 MOL     -0.259572
    125 C40        -6.8740   -0.3730    0.1930 c         1 MOL      0.522821
    126 O19        -7.6500   -0.7690    1.0700 o         1 MOL     -0.564472
    127 C41        -7.9000    1.4380   -1.4400 c3        1 MOL      0.020421
    128 C42        -8.4740    2.7660   -1.6130 ca        1 MOL      0.129285
    129 C43        -9.7470    3.0040   -1.1530 ca        1 MOL     -0.206048
    130 C44        -7.7180    3.7940   -2.2900 ca        1 MOL     -0.206048
    131 C45       -10.2660    4.2890   -1.1540 ca        1 MOL     -0.222402
    132 C46        -8.3770    5.0160   -2.6190 ca        1 MOL     -0.222402
    133 C47        -9.5760    5.3080   -1.9190 ca        1 MOL      0.280596
    134 O20       -10.0940    6.5770   -2.0330 oh        1 MOL     -0.526181
    135 H56        -5.3220    2.1900   -1.4430 hn        1 MOL      0.172875
    136 H57        -7.0440    1.8650    0.4870 h1        1 MOL      0.128516
    137 H58        -8.7370    0.7890   -1.1790 hc        1 MOL      0.059183
    138 H59        -7.6340    0.9850   -2.3960 hc        1 MOL      0.059183
    139 H60       -10.3030    2.2000   -0.6910 ha        1 MOL      0.156463
    140 H61        -6.7040    3.6890   -2.6430 ha        1 MOL      0.156463
    141 H62       -11.1550    4.5940   -0.6330 ha        1 MOL      0.132341
    142 H63        -7.9050    5.7660   -3.2340 ha        1 MOL      0.132341
    143 H64        -9.4930    7.2840   -2.2900 ho        1 MOL      0.370169
    144 N13        -5.8520   -1.1510   -0.2280 n         1 MOL     -0.002266
    145 C48        -5.8210   -2.6990   -0.0360 c3        1 MOL     -0.386720
    146 C49        -4.7710   -3.1670    0.9700 c         1 MOL      0.617676
    147 O21        -4.6400   -4.3400    1.2850 o         1 MOL     -0.549429
    148 C50        -5.6130   -3.3240   -1.3850 c3        1 MOL      0.065231
    149 C51        -6.3290   -2.7870   -2.6390 c3        1 MOL     -0.385732
    150 C52        -7.8840   -2.8100   -2.4940 c         1 MOL      0.783577
    151 O22        -8.5720   -1.9250   -2.9970 o         1 MOL     -0.746233
    152 O23        -8.4830   -3.7310   -1.8720 o         1 MOL     -0.746233
    153 H65        -5.1840   -0.7250   -0.8490 hn        1 MOL      0.176199
    154 H66        -6.8100   -2.9850    0.3160 h1        1 MOL      0.205512
    155 H67        -5.7170   -4.4050   -1.2780 hc        1 MOL      0.043809
    156 H68        -4.5380   -3.4090   -1.5580 hc        1 MOL      0.043809
    157 H69        -5.9520   -3.3050   -3.5130 hc        1 MOL      0.063187
    158 H70        -6.1370   -1.7200   -2.7590 hc        1 MOL      0.063187
    159 N14        -4.0960   -2.2160    1.6410 n         1 MOL     -0.484671
    160 C53        -3.1900   -2.4140    2.7400 c3        1 MOL      0.069945
    161 C54        -3.9230   -1.8340    4.0180 c         1 MOL      0.479526
    162 O24        -3.8920   -2.3830    5.1110 o         1 MOL     -0.577317
    163 C55        -1.8780   -1.7090    2.4960 c3        1 MOL     -0.012493
    164 C56        -1.1610   -2.2040    1.2250 c3        1 MOL      0.077160
    165 C57         0.0350   -1.4310    0.7360 c         1 MOL      0.612067
    166 O25         0.9020   -1.9420    0.0330 o         1 MOL     -0.706559
    167 O26         0.0970   -0.1980    0.9250 o         1 MOL     -0.706559
    168 H71        -4.1430   -1.2900    1.2490 hn        1 MOL      0.234168
    169 H72        -3.0190   -3.4510    3.0220 h1        1 MOL      0.048578
    170 H73        -1.2720   -1.8870    3.3860 hc        1 MOL      0.008056
    171 H74        -2.0940   -0.6520    2.3860 hc        1 MOL      0.008056
    172 H75        -1.8570   -2.2290    0.3850 hc        1 MOL     -0.014281
    173 H76        -0.8600   -3.2290    1.4420 hc        1 MOL     -0.014281
    174 N15        -4.6200   -0.7360    3.7710 n         1 MOL     -0.059523
    175 C58        -5.2180    0.0850    4.7770 c3        1 MOL     -0.141899
    176 H77        -5.8230   -0.5340    5.4390 h1        1 MOL      0.059372
    177 H78        -4.4370    0.5790    5.3540 h1        1 MOL      0.059372
    178 H79        -5.8520    0.8360    4.3040 h1        1 MOL      0.059372
    179 H80        -4.6590   -0.3340    2.8430 hn        1 MOL      0.030924
    180 Ca1         2.7420   -0.0220    0.3910 Ca        1 MOL      1.737463
    181 O27         2.6600   -0.8020    3.1360 oh        1 MOL     -0.886196
    182 O28         1.1450    1.3770   -1.5710 oh        1 MOL     -0.886196
    183 H81         2.1230   -1.4520    3.6010 ho        1 MOL      0.412750
    184 H82         1.8130    1.9960   -1.8490 ho        1 MOL      0.412750
    185 H83         2.8820   -0.1500    3.7990 ho        1 MOL      0.412750
    186 H84         1.2540    0.6250   -2.1490 ho        1 MOL      0.412750
    187 O29         5.1200    0.4080    1.6380 oh        1 MOL     -0.886196
    188 H85         5.2700    0.9450    2.4210 ho        1 MOL      0.412750
    189 H86         5.3240   -0.4850    1.9280 ho        1 MOL      0.412750
@<TRIPOS>BOND
     1    1    2 1   
     2    1    4 1   
     3    1    5 1   
     4    1    6 1   
     5    2    3 2   
     6    2    7 1   
     7    7    8 1   
     8    7   15 1   
     9    8    9 1   
    10    8   11 1   
    11    8   16 1   
    12    9   10 2   
    13    9   19 1   
    14   11   12 1   
    15   11   17 1   
    16   11   18 1   
    17   12   13 1   
    18   12   14 1   
    19   19   20 1   
    20   19   27 1   
    21   20   21 1   
    22   20   23 1   
    23   20   28 1   
    24   21   22 2   
    25   21   38 1   
    26   23   24 1   
    27   23   25 1   
    28   23   29 1   
    29   24   26 1   
    30   24   30 1   
    31   24   31 1   
    32   25   32 1   
    33   25   33 1   
    34   25   34 1   
    35   26   35 1   
    36   26   36 1   
    37   26   37 1   
    38   38   39 1   
    39   38   46 1   
    40   39   40 1   
    41   39   42 1   
    42   39   47 1   
    43   40   41 2   
    44   40   50 1   
    45   42   43 1   
    46   42   48 1   
    47   42   49 1   
    48   43   44 1   
    49   43   45 1   
    50   50   51 1   
    51   50   54 1   
    52   51   52 1   
    53   51   55 1   
    54   51   56 1   
    55   52   53 2   
    56   52   57 1   
    57   57   58 1   
    58   57   65 1   
    59   58   59 1   
    60   58   61 1   
    61   58   66 1   
    62   59   60 2   
    63   59   69 1   
    64   61   62 1   
    65   61   67 1   
    66   61   68 1   
    67   62   63 1   
    68   62   64 1   
    69   69   70 1   
    70   69   73 1   
    71   70   71 1   
    72   70   74 1   
    73   70   75 1   
    74   71   72 2   
    75   71   76 1   
    76   76   77 1   
    77   76   85 1   
    78   77   78 1   
    79   77   80 1   
    80   77   86 1   
    81   78   79 2   
    82   78   93 1   
    83   80   81 1   
    84   80   87 1   
    85   80   88 1   
    86   81   82 1   
    87   81   89 1   
    88   81   90 1   
    89   82   83 1   
    90   82   84 2   
    91   83   91 1   
    92   83   92 1   
    93   93   94 1   
    94   93  100 1   
    95   94   95 1   
    96   94   97 1   
    97   94  101 1   
    98   95   96 2   
    99   95  109 1   
   100   97   98 1   
   101   97   99 1   
   102   97  102 1   
   103   98  103 1   
   104   98  104 1   
   105   98  105 1   
   106   99  106 1   
   107   99  107 1   
   108   99  108 1   
   109  109  110 1   
   110  109  117 1   
   111  110  111 1   
   112  110  113 1   
   113  110  118 1   
   114  111  112 2   
   115  111  123 1   
   116  113  114 1   
   117  113  119 1   
   118  113  120 1   
   119  114  115 1   
   120  114  116 2   
   121  115  121 1   
   122  115  122 1   
   123  123  124 1   
   124  123  135 1   
   125  124  125 1   
   126  124  127 1   
   127  124  136 1   
   128  125  126 2   
   129  125  144 1   
   130  127  128 1   
   131  127  137 1   
   132  127  138 1   
   133  128  129 ar  
   134  128  130 ar  
   135  129  131 ar  
   136  129  139 1   
   137  130  132 ar  
   138  130  140 1   
   139  131  133 ar  
   140  131  141 1   
   141  132  133 ar  
   142  132  142 1   
   143  133  134 1   
   144  134  143 1   
   145  144  145 1   
   146  144  153 1   
   147  145  146 1   
   148  145  148 1   
   149  145  154 1   
   150  146  147 2   
   151  146  159 1   
   152  148  149 1   
   153  148  155 1   
   154  148  156 1   
   155  149  150 1   
   156  149  157 1   
   157  149  158 1   
   158  150  151 1   
   159  150  152 1   
   160  159  160 1   
   161  159  168 1   
   162  160  161 1   
   163  160  163 1   
   164  160  169 1   
   165  161  162 2   
   166  161  174 1   
   167  163  164 1   
   168  163  170 1   
   169  163  171 1   
   170  164  165 1   
   171  164  172 1   
   172  164  173 1   
   173  165  166 1   
   174  165  167 1   
   175  174  175 1   
   176  174  179 1   
   177  175  176 1   
   178  175  177 1   
   179  175  178 1   
   180  181  183 1   
   181  181  185 1   
   182  182  184 1   
   183  182  186 1   
   184  187  188 1   
   185  187  189 1   
@<TRIPOS>SUBSTRUCTURE
     1 MOL         1 TEMP              0 ****  ****    0 ROOT
