@<TRIPOS>MOLECULE
MOL
  175   173     1     0     0
SMALL
resp


@<TRIPOS>ATOM
      1 C1         -0.1080    3.8140    5.5810 c3        1 MOL     -0.393054
      2 C2         -0.5330    3.5920    4.0660 c         1 MOL      0.612361
      3 O1          0.2910    3.6860    3.1350 o         1 MOL     -0.504513
      4 H1         -1.0010    3.8780    6.2020 hc        1 MOL      0.099331
      5 H2          0.5060    2.9770    5.9130 hc        1 MOL      0.099331
      6 H3          0.4610    4.7400    5.6670 hc        1 MOL      0.099331
      7 N1         -1.8470    3.5550    3.8470 n         1 MOL     -0.467049
      8 C3         -2.4770    3.3310    2.5590 c3        1 MOL     -0.027731
      9 C4         -2.7230    4.6320    1.7810 c         1 MOL      0.598401
     10 O2         -3.2650    5.6110    2.2650 o         1 MOL     -0.593499
     11 C5         -3.8270    2.6590    2.7880 c3        1 MOL     -0.321945
     12 C6         -4.3020    1.9690    1.5400 c         1 MOL      0.829957
     13 O3         -3.5930    1.7770    0.5390 o         1 MOL     -0.700426
     14 O4         -5.4480    1.5950    1.6430 o         1 MOL     -0.700426
     15 H4         -2.4850    3.7150    4.6130 hn        1 MOL      0.303682
     16 H5         -1.8380    2.6110    2.0310 h1        1 MOL      0.108165
     17 H6         -4.5970    3.3740    3.0780 hc        1 MOL      0.074501
     18 H7         -3.7540    1.9090    3.5740 hc        1 MOL      0.074501
     19 N2         -2.2770    4.6290    0.5230 n         1 MOL     -0.376658
     20 C7         -2.4960    5.6760   -0.5160 c3        1 MOL      0.313203
     21 C8         -3.1940    5.1100   -1.7290 c         1 MOL      0.435350
     22 O5         -3.1550    5.7290   -2.7520 o         1 MOL     -0.529217
     23 C9         -1.1590    6.2590   -0.8230 c3        1 MOL     -0.321028
     24 H8         -1.8540    3.7680    0.2080 hn        1 MOL      0.242967
     25 H9         -3.1290    6.4180   -0.0180 h1        1 MOL      0.007122
     26 H10        -1.3860    7.2510   -1.2150 hc        1 MOL      0.073790
     27 H11        -0.5260    6.2510    0.0620 hc        1 MOL      0.073790
     28 H12        -0.6690    5.7280   -1.6480 hc        1 MOL      0.073790
     29 N3         -3.8950    3.9640   -1.6160 n         1 MOL     -0.340057
     30 C10        -4.6880    3.4620   -2.7220 c3        1 MOL      0.134739
     31 C11        -5.9650    2.6990   -2.3830 c         1 MOL      0.334290
     32 O6         -6.9270    2.6810   -3.2090 o         1 MOL     -0.563763
     33 C12        -3.8520    2.4510   -3.5970 c3        1 MOL     -0.166574
     34 C13        -3.1960    1.3200   -2.7920 c         1 MOL      0.794714
     35 O7         -1.9210    1.1590   -2.8200 o         1 MOL     -0.775694
     36 O8         -3.8570    0.5390   -2.0970 o         1 MOL     -0.775694
     37 H13        -3.9240    3.4530   -0.7470 hn        1 MOL      0.090601
     38 H14        -4.9640    4.2850   -3.3820 h1        1 MOL      0.062772
     39 H15        -3.1040    3.0280   -4.1320 hc        1 MOL      0.046278
     40 H16        -4.4580    1.9160   -4.3420 hc        1 MOL      0.046278
     41 N4         -6.1360    2.0700   -1.2130 n         1 MOL     -0.166111
     42 C14        -7.3900    1.3540   -0.7670 c3        1 MOL     -0.337424
     43 C15        -7.4080   -0.1390   -0.8960 c         1 MOL      0.695517
     44 O9         -8.4170   -0.7130   -0.7210 o         1 MOL     -0.630075
     45 H17        -5.3910    2.0750   -0.5330 hn        1 MOL      0.228489
     46 H18        -8.2540    1.7710   -1.2880 h1        1 MOL      0.136899
     47 H19        -7.4440    1.5750    0.3020 h1        1 MOL      0.136899
     48 N5         -6.3190   -0.7100   -1.3980 n         1 MOL     -0.351296
     49 C16        -6.3200   -2.1120   -1.9730 c3        1 MOL     -0.046675
     50 C17        -6.2130   -3.2800   -0.9430 c         1 MOL      0.494357
     51 O10        -6.1170   -4.4060   -1.3410 o         1 MOL     -0.518270
     52 C18        -5.3330   -2.1070   -3.1520 c3        1 MOL     -0.209122
     53 C19        -3.8890   -2.3120   -2.6890 c         1 MOL      0.664510
     54 N6         -2.9460   -2.4150   -3.6200 n         1 MOL     -0.729360
     55 O11        -3.5920   -2.3160   -1.5040 o         1 MOL     -0.433146
     56 H20        -5.4570   -0.2100   -1.5290 hn        1 MOL      0.324035
     57 H21        -7.3180   -2.2760   -2.3830 h1        1 MOL      0.099306
     58 H22        -5.4060   -1.2110   -3.7790 hc        1 MOL      0.068146
     59 H23        -5.4750   -2.9670   -3.8050 hc        1 MOL      0.068146
     60 H24        -3.0950   -2.3110   -4.6130 hn        1 MOL      0.347083
     61 H25        -2.0080   -2.6730   -3.3340 hn        1 MOL      0.347083
     62 N7         -6.1930   -2.9810    0.3780 n         1 MOL     -0.306533
     63 C20        -6.1710   -3.9610    1.4340 c3        1 MOL     -0.079694
     64 C21        -4.8000   -4.5330    1.8750 c         1 MOL      0.432370
     65 O12        -4.7650   -5.5120    2.6750 o         1 MOL     -0.567374
     66 H26        -6.2400   -1.9920    0.6100 hn        1 MOL      0.241459
     67 H27        -6.9020   -4.7600    1.3250 h1        1 MOL      0.078965
     68 H28        -6.5330   -3.4090    2.3100 h1        1 MOL      0.078965
     69 N8         -3.7550   -3.9090    1.3810 n         1 MOL     -0.071209
     70 C22        -2.3710   -4.5240    1.3930 c3        1 MOL     -0.353385
     71 C23        -1.2450   -3.4720    1.4140 c         1 MOL      0.760713
     72 O13        -1.4420   -2.4010    0.8170 o         1 MOL     -0.655461
     73 C24        -2.1550   -5.4260    0.1690 c3        1 MOL      0.503844
     74 C25        -2.9580   -6.7110    0.2850 c3        1 MOL     -0.510552
     75 O14        -2.4810   -4.8270   -1.0950 oh        1 MOL     -0.527276
     76 H29        -3.9220   -3.0920    0.8060 hn        1 MOL      0.092193
     77 H30        -2.1830   -5.1150    2.2890 h1        1 MOL      0.125305
     78 H31        -1.0910   -5.6390    0.0370 h1        1 MOL     -0.011900
     79 H32        -2.6580   -3.9010   -0.9270 ho        1 MOL      0.217351
     80 H33        -2.8480   -7.1340    1.2770 hc        1 MOL      0.127993
     81 H34        -4.0010   -6.4200    0.1350 hc        1 MOL      0.127993
     82 H35        -2.5700   -7.4470   -0.4200 hc        1 MOL      0.127993
     83 N9         -0.1280   -3.6780    2.0450 n         1 MOL     -0.655195
     84 C26         0.9910   -2.7570    2.0530 c3        1 MOL      0.050826
     85 C27         1.8310   -2.9390    0.7570 c         1 MOL      0.639006
     86 O15         2.3840   -4.0280    0.4850 o         1 MOL     -0.600163
     87 C28         1.8610   -3.0420    3.3500 c3        1 MOL      0.342568
     88 C29         1.1450   -3.1980    4.6810 c3        1 MOL      0.160178
     89 C30         2.9900   -2.0080    3.4330 c3        1 MOL     -0.406042
     90 C31         1.9360   -3.1490    5.9790 c3        1 MOL     -0.266331
     91 H36         0.0040   -4.5990    2.4340 hn        1 MOL      0.306367
     92 H37         0.5930   -1.7450    2.1410 h1        1 MOL      0.011892
     93 H38         2.3350   -4.0050    3.1400 hc        1 MOL     -0.078665
     94 H39         0.5900   -4.1380    4.6430 hc        1 MOL     -0.043001
     95 H40         0.3610   -2.4510    4.7930 hc        1 MOL     -0.043001
     96 H41         2.5600   -1.0660    3.7760 hc        1 MOL      0.063755
     97 H42         3.7660   -2.3890    4.0950 hc        1 MOL      0.063755
     98 H43         3.4060   -1.7450    2.4620 hc        1 MOL      0.063755
     99 H44         1.2820   -3.3700    6.8300 hc        1 MOL      0.061323
    100 H45         2.7460   -3.8740    5.9980 hc        1 MOL      0.061323
    101 H46         2.3040   -2.1280    6.0800 hc        1 MOL      0.061323
    102 N10         1.9170   -1.8530   -0.0310 n         1 MOL     -0.315405
    103 C32         2.7960   -1.7930   -1.2020 c3        1 MOL      0.031789
    104 C33         4.1190   -1.1540   -0.9400 c         1 MOL      0.437249
    105 O16         4.2930   -0.3780    0.0250 o         1 MOL     -0.329455
    106 C34         2.0400   -1.0580   -2.3680 c3        1 MOL     -0.171031
    107 C35         0.7360   -1.6300   -2.7550 c         1 MOL      0.684672
    108 O17        -0.2560   -1.5360   -1.9640 o         1 MOL     -0.672017
    109 O18         0.6000   -2.2380   -3.8120 o         1 MOL     -0.672017
    110 H47         1.4490   -0.9990    0.2340 hn        1 MOL      0.222094
    111 H48         2.9530   -2.7910   -1.6220 h1        1 MOL      0.085772
    112 H49         2.6630   -1.0320   -3.2650 hc        1 MOL      0.046175
    113 H50         1.8310   -0.0360   -2.0550 hc        1 MOL      0.046175
    114 N11         5.1960   -1.5670   -1.6730 n         1 MOL     -0.708723
    115 C36         6.5430   -1.1770   -1.4070 c3        1 MOL      0.517880
    116 C37         6.7730    0.2470   -1.0760 c         1 MOL      0.070595
    117 O19         7.4660    0.5790   -0.0230 o         1 MOL     -0.461687
    118 C38         7.4730   -1.7220   -2.3870 c3        1 MOL     -0.326871
    119 C39         8.9180   -1.6180   -2.1500 ca        1 MOL      0.096448
    120 C40         9.4660   -2.0490   -0.9000 ca        1 MOL     -0.073002
    121 C41         9.8190   -1.4680   -3.1660 ca        1 MOL     -0.073002
    122 C42        10.8400   -2.1980   -0.7070 ca        1 MOL     -0.185157
    123 C43        11.2180   -1.7410   -3.0000 ca        1 MOL     -0.185157
    124 C44        11.7880   -1.9930   -1.7290 ca        1 MOL     -0.073563
    125 H51         5.0040   -2.0830   -2.5180 hn        1 MOL      0.341799
    126 H52         6.7180   -1.6980   -0.4610 h1        1 MOL      0.072169
    127 H53         7.2380   -1.2600   -3.3460 hc        1 MOL      0.090632
    128 H54         7.2380   -2.7910   -2.4600 hc        1 MOL      0.090632
    129 H55         8.7650   -2.1630   -0.0860 ha        1 MOL      0.078876
    130 H56         9.5150   -1.2810   -4.1900 ha        1 MOL      0.078876
    131 H57        11.1470   -2.4750    0.2870 ha        1 MOL      0.119240
    132 H58        11.8610   -1.6500   -3.8520 ha        1 MOL      0.119240
    133 H59        12.8530   -2.1050   -1.5570 ha        1 MOL      0.108058
    134 N12         6.1440    1.2090   -1.7640 n         1 MOL      0.074362
    135 C45         6.1230    2.6510   -1.4280 c3        1 MOL     -0.051446
    136 C46         5.7140    2.9690    0.0450 c         1 MOL      0.344727
    137 O20         6.3060    3.7540    0.7130 o         1 MOL     -0.498763
    138 C47         5.2900    3.4040   -2.4410 c3        1 MOL      0.207595
    139 C48         5.2410    2.4410   -3.5770 c3        1 MOL     -0.129538
    140 C49         5.3510    1.0530   -2.9570 c3        1 MOL     -0.100840
    141 H60         7.1410    3.0320   -1.4960 h1        1 MOL      0.042843
    142 H61         4.2650    3.5140   -2.0970 hc        1 MOL     -0.015666
    143 H62         5.6170    4.4330   -2.6270 hc        1 MOL     -0.015666
    144 H63         4.3600    2.6360   -4.1810 hc        1 MOL      0.034165
    145 H64         6.2170    2.6450   -4.0200 hc        1 MOL      0.034165
    146 H65         4.3430    0.8040   -2.6160 h1        1 MOL      0.064268
    147 H66         5.7020    0.2280   -3.5700 h1        1 MOL      0.064268
    148 N13         4.6320    2.3380    0.4390 n         1 MOL     -0.139198
    149 C50         4.0080    2.5080    1.7490 c3        1 MOL     -0.272666
    150 C51         4.9190    1.9200    2.8900 c         1 MOL      0.521557
    151 O21         4.8880    2.4060    4.0190 o         1 MOL     -0.574941
    152 C52         2.6290    1.8280    1.6810 c3        1 MOL      0.084286
    153 C53         1.8000    2.3670    0.4650 c3        1 MOL     -0.226624
    154 C54         0.3730    1.6940    0.4780 c         1 MOL      0.414518
    155 O22        -0.5930    2.1830   -0.1460 o         1 MOL     -0.572296
    156 O23         0.1330    0.6340    1.0930 o         1 MOL     -0.572296
    157 H67         4.2270    1.6690   -0.1970 hn        1 MOL      0.159699
    158 H68         3.9330    3.5860    1.8830 h1        1 MOL      0.153456
    159 H69         2.1140    2.0710    2.6110 hc        1 MOL      0.026143
    160 H70         2.7810    0.7540    1.5470 hc        1 MOL      0.026143
    161 H71         2.3150    2.1360   -0.4730 hc        1 MOL      0.103027
    162 H72         1.6800    3.4370    0.5720 hc        1 MOL      0.103027
    163 N14         5.6700    0.8660    2.5860 n         1 MOL     -0.023887
    164 C55         6.6950    0.3360    3.5120 c3        1 MOL     -0.266926
    165 H73         7.6880    0.5630    3.1230 h1        1 MOL      0.096746
    166 H74         6.5740    0.7990    4.4920 h1        1 MOL      0.096746
    167 H75         6.5800   -0.7440    3.6030 h1        1 MOL      0.096746
    168 H76         5.6750    0.5850    1.6110 hn        1 MOL      0.092173
    169 Ca1        -1.9610   -0.1250   -0.4180 Ca        1 MOL      1.662460
    170 O24        -4.2970   -0.8790    1.1140 oh        1 MOL     -0.729499
    171 H77        -4.7420   -0.0590    0.9150 ho        1 MOL      0.359752
    172 H78        -3.6930   -0.6670    1.8180 ho        1 MOL      0.359752
    173 O25        -1.8330   -0.0010    2.6890 oh        1 MOL     -0.729499
    174 H79        -1.0170    0.3160    2.3070 ho        1 MOL      0.359752
    175 H80        -1.7800    0.2200    3.6190 ho        1 MOL      0.359752
@<TRIPOS>BOND
     1    1    2 1   
     2    1    4 1   
     3    1    5 1   
     4    1    6 1   
     5    2    3 2   
     6    2    7 1   
     7    7    8 1   
     8    7   15 1   
     9    8    9 1   
    10    8   11 1   
    11    8   16 1   
    12    9   10 2   
    13    9   19 1   
    14   11   12 1   
    15   11   17 1   
    16   11   18 1   
    17   12   13 1   
    18   12   14 1   
    19   19   20 1   
    20   19   24 1   
    21   20   21 1   
    22   20   23 1   
    23   20   25 1   
    24   21   22 2   
    25   21   29 1   
    26   23   26 1   
    27   23   27 1   
    28   23   28 1   
    29   29   30 1   
    30   29   37 1   
    31   30   31 1   
    32   30   33 1   
    33   30   38 1   
    34   31   32 2   
    35   31   41 1   
    36   33   34 1   
    37   33   39 1   
    38   33   40 1   
    39   34   35 1   
    40   34   36 1   
    41   41   42 1   
    42   41   45 1   
    43   42   43 1   
    44   42   46 1   
    45   42   47 1   
    46   43   44 2   
    47   43   48 1   
    48   48   49 1   
    49   48   56 1   
    50   49   50 1   
    51   49   52 1   
    52   49   57 1   
    53   50   51 2   
    54   50   62 1   
    55   52   53 1   
    56   52   58 1   
    57   52   59 1   
    58   53   54 1   
    59   53   55 2   
    60   54   60 1   
    61   54   61 1   
    62   62   63 1   
    63   62   66 1   
    64   63   64 1   
    65   63   67 1   
    66   63   68 1   
    67   64   65 2   
    68   64   69 1   
    69   69   70 1   
    70   69   76 1   
    71   70   71 1   
    72   70   73 1   
    73   70   77 1   
    74   71   72 2   
    75   71   83 1   
    76   73   74 1   
    77   73   75 1   
    78   73   78 1   
    79   74   80 1   
    80   74   81 1   
    81   74   82 1   
    82   75   79 1   
    83   83   84 1   
    84   83   91 1   
    85   84   85 1   
    86   84   87 1   
    87   84   92 1   
    88   85   86 2   
    89   85  102 1   
    90   87   88 1   
    91   87   89 1   
    92   87   93 1   
    93   88   90 1   
    94   88   94 1   
    95   88   95 1   
    96   89   96 1   
    97   89   97 1   
    98   89   98 1   
    99   90   99 1   
   100   90  100 1   
   101   90  101 1   
   102  102  103 1   
   103  102  110 1   
   104  103  104 1   
   105  103  106 1   
   106  103  111 1   
   107  104  105 2   
   108  104  114 1   
   109  106  107 1   
   110  106  112 1   
   111  106  113 1   
   112  107  108 1   
   113  107  109 1   
   114  114  115 1   
   115  114  125 1   
   116  115  116 1   
   117  115  118 1   
   118  115  126 1   
   119  116  117 2   
   120  116  134 1   
   121  118  119 1   
   122  118  127 1   
   123  118  128 1   
   124  119  120 ar  
   125  119  121 ar  
   126  120  122 ar  
   127  120  129 1   
   128  121  123 ar  
   129  121  130 1   
   130  122  124 ar  
   131  122  131 1   
   132  123  124 ar  
   133  123  132 1   
   134  124  133 1   
   135  134  135 1   
   136  134  140 1   
   137  135  136 1   
   138  135  138 1   
   139  135  141 1   
   140  136  137 2   
   141  136  148 1   
   142  138  139 1   
   143  138  142 1   
   144  138  143 1   
   145  139  140 1   
   146  139  144 1   
   147  139  145 1   
   148  140  146 1   
   149  140  147 1   
   150  148  149 1   
   151  148  157 1   
   152  149  150 1   
   153  149  152 1   
   154  149  158 1   
   155  150  151 2   
   156  150  163 1   
   157  152  153 1   
   158  152  159 1   
   159  152  160 1   
   160  153  154 1   
   161  153  161 1   
   162  153  162 1   
   163  154  155 1   
   164  154  156 1   
   165  163  164 1   
   166  163  168 1   
   167  164  165 1   
   168  164  166 1   
   169  164  167 1   
   170  170  171 1   
   171  170  172 1   
   172  173  174 1   
   173  173  175 1   
@<TRIPOS>SUBSTRUCTURE
     1 MOL         1 TEMP              0 ****  ****    0 ROOT
