@<TRIPOS>MOLECULE
MOL
  175   173     1     0     0
SMALL
resp


@<TRIPOS>ATOM
      1 C1          0.4290    4.6280    5.5300 c3        1 MOL     -0.404541
      2 C2         -0.1960    4.4350    4.0680 c         1 MOL      0.691552
      3 O1          0.5690    4.5190    3.1020 o         1 MOL     -0.546219
      4 H1          0.7030    5.6730    5.6720 hc        1 MOL      0.100878
      5 H2         -0.3070    4.3410    6.2810 hc        1 MOL      0.100878
      6 H3          1.3160    4.0030    5.6320 hc        1 MOL      0.100878
      7 N1         -1.5290    4.1680    3.9510 n         1 MOL     -0.705088
      8 C3         -2.1670    3.7030    2.7170 c3        1 MOL      0.369341
      9 C4         -2.4580    4.6710    1.6370 c         1 MOL      0.513549
     10 O2         -3.0660    5.6970    1.8470 o         1 MOL     -0.589367
     11 C5         -3.3780    2.8610    3.0160 c3        1 MOL     -0.458921
     12 C6         -3.9990    2.1770    1.8440 c         1 MOL      0.958652
     13 O3         -5.2440    1.9650    1.8810 o         1 MOL     -0.735881
     14 O4         -3.3550    2.0260    0.7890 o         1 MOL     -0.735881
     15 H4         -2.1210    4.0880    4.7670 hn        1 MOL      0.338478
     16 H5         -1.4970    2.8870    2.4610 h1        1 MOL      0.070804
     17 H6         -4.1860    3.4730    3.4180 hc        1 MOL      0.070141
     18 H7         -3.1120    2.1710    3.8100 hc        1 MOL      0.070141
     19 N2         -1.9090    4.3870    0.4450 n         1 MOL     -0.320066
     20 C7         -1.9620    5.2660   -0.7020 c3        1 MOL      0.334554
     21 C8         -3.0740    4.9980   -1.7380 c         1 MOL      0.249716
     22 O5         -3.3030    5.8460   -2.6210 o         1 MOL     -0.570148
     23 C9         -0.6320    5.4130   -1.4320 c3        1 MOL     -0.501722
     24 H8         -1.2210    3.6490    0.3990 hn        1 MOL      0.186973
     25 H9         -2.1800    6.2350   -0.2500 h1        1 MOL      0.007299
     26 H10         0.0460    5.8930   -0.7350 hc        1 MOL      0.133704
     27 H11        -0.3080    4.5010   -1.9330 hc        1 MOL      0.133704
     28 H12        -0.8320    6.0690   -2.2900 hc        1 MOL      0.133704
     29 N3         -3.6960    3.8660   -1.7550 n         1 MOL     -0.037543
     30 C10        -4.6760    3.3960   -2.7750 c3        1 MOL     -0.038641
     31 C11        -5.9410    2.6670   -2.2450 c         1 MOL      0.257758
     32 O6         -6.8960    2.4910   -3.0560 o         1 MOL     -0.546110
     33 C12        -3.9190    2.4050   -3.7470 c3        1 MOL      0.115122
     34 C13        -2.7720    1.6530   -3.1500 c         1 MOL      0.658297
     35 O7         -2.9860    0.9340   -2.1150 o         1 MOL     -0.681009
     36 O8         -1.6620    1.7120   -3.7640 o         1 MOL     -0.681009
     37 H13        -3.5670    3.2810   -0.9460 hn        1 MOL      0.097297
     38 H14        -4.8920    4.2580   -3.4010 h1        1 MOL      0.113447
     39 H15        -3.6280    2.9690   -4.6320 hc        1 MOL     -0.048484
     40 H16        -4.5260    1.5730   -4.1190 hc        1 MOL     -0.048484
     41 N4         -6.0140    2.2320   -1.0050 n         1 MOL     -0.024402
     42 C14        -7.1310    1.4030   -0.4620 c3        1 MOL     -0.387166
     43 C15        -7.2160   -0.0800   -0.9060 c         1 MOL      0.554498
     44 O9         -8.1760   -0.7590   -0.5430 o         1 MOL     -0.612517
     45 H17        -5.1680    2.2480   -0.4450 hn        1 MOL      0.071787
     46 H18        -8.0520    1.8630   -0.8130 h1        1 MOL      0.173471
     47 H19        -7.1020    1.4480    0.6270 h1        1 MOL      0.173471
     48 N5         -6.2940   -0.6030   -1.6570 n         1 MOL     -0.249087
     49 C16        -6.2590   -1.9400   -2.1470 c3        1 MOL     -0.045911
     50 C17        -6.1400   -3.1040   -1.0510 c         1 MOL      0.385758
     51 O10        -6.0990   -4.3060   -1.3320 o         1 MOL     -0.523165
     52 C18        -5.1580   -2.0670   -3.1880 c3        1 MOL     -0.149225
     53 C19        -3.7070   -2.1300   -2.7390 c         1 MOL      0.315123
     54 N6         -2.8160   -2.3690   -3.6460 n         1 MOL     -0.558469
     55 O11        -3.3410   -2.1170   -1.5700 o         1 MOL     -0.139337
     56 H20        -5.5190    0.0090   -1.9010 hn        1 MOL      0.274452
     57 H21        -7.1930   -2.0660   -2.6920 h1        1 MOL      0.107793
     58 H22        -5.2670   -1.2590   -3.9210 hc        1 MOL      0.061324
     59 H23        -5.3700   -2.9920   -3.7180 hc        1 MOL      0.061324
     60 H24        -3.0270   -2.4560   -4.6300 hn        1 MOL      0.319031
     61 H25        -1.9130   -2.4590   -3.2100 hn        1 MOL      0.319031
     62 N7         -6.2620   -2.7590    0.2050 n         1 MOL     -0.151094
     63 C20        -6.1860   -3.7060    1.3640 c3        1 MOL     -0.261478
     64 C21        -4.8790   -4.2670    1.7820 c         1 MOL      0.540335
     65 O12        -4.9350   -5.0480    2.7380 o         1 MOL     -0.586155
     66 H26        -6.6040   -1.8330    0.3790 hn        1 MOL      0.211381
     67 H27        -6.8140   -4.5390    1.0450 h1        1 MOL      0.128766
     68 H28        -6.6890   -3.3140    2.2400 h1        1 MOL      0.128766
     69 N8         -3.7890   -3.9880    1.0920 n         1 MOL     -0.214993
     70 C22        -2.4570   -4.5820    1.3180 c3        1 MOL     -0.092402
     71 C23        -1.3380   -3.5800    1.5540 c         1 MOL      0.448659
     72 O13        -1.5010   -2.4650    1.0510 o         1 MOL     -0.572731
     73 C24        -1.9480   -5.3940    0.1830 c3        1 MOL      0.615473
     74 C25        -2.4850   -6.8070   -0.0530 c3        1 MOL     -0.421334
     75 O14        -2.0750   -4.7720   -1.0690 oh        1 MOL     -0.626010
     76 H29        -3.8180   -3.4410    0.2500 hn        1 MOL      0.095978
     77 H30        -2.4800   -5.2470    2.1820 h1        1 MOL      0.035724
     78 H31        -0.8930   -5.4950    0.4070 h1        1 MOL     -0.120589
     79 H32        -1.7720   -3.8630   -0.9860 ho        1 MOL      0.315187
     80 H33        -3.5570   -6.8730   -0.1990 hc        1 MOL      0.101293
     81 H34        -2.1620   -7.2190   -1.0080 hc        1 MOL      0.101293
     82 H35        -2.1990   -7.5220    0.7150 hc        1 MOL      0.101293
     83 N9         -0.3160   -3.9340    2.2470 n         1 MOL     -0.326167
     84 C26         0.9440   -3.2000    2.1200 c3        1 MOL     -0.065408
     85 C27         1.5490   -3.3600    0.7190 c         1 MOL      0.603879
     86 O15         2.0750   -4.4310    0.3760 o         1 MOL     -0.573900
     87 C28         1.8990   -3.4990    3.3090 c3        1 MOL      0.009085
     88 C29         1.4530   -2.9970    4.6780 c3        1 MOL     -0.145199
     89 C30         3.4050   -3.0530    3.1370 c3        1 MOL     -0.379557
     90 C31         0.7510   -1.6610    4.6150 c3        1 MOL     -0.152743
     91 H36        -0.3560   -4.8310    2.7190 hn        1 MOL      0.274377
     92 H37         0.6790   -2.1470    2.2040 h1        1 MOL      0.271793
     93 H38         1.8620   -4.5900    3.2640 hc        1 MOL      0.012902
     94 H39         2.3320   -2.9620    5.3280 hc        1 MOL      0.062934
     95 H40         0.7370   -3.7180    5.0480 hc        1 MOL      0.062934
     96 H41         4.0160   -3.4650    3.9440 hc        1 MOL      0.104648
     97 H42         3.7720   -3.1930    2.1280 hc        1 MOL      0.104648
     98 H43         3.4610   -2.0220    3.4980 hc        1 MOL      0.104648
     99 H44         1.3140   -0.8610    4.1320 hc        1 MOL      0.033145
    100 H45        -0.1680   -1.7350    4.0210 hc        1 MOL      0.033145
    101 H46         0.6340   -1.3610    5.6520 hc        1 MOL      0.033145
    102 N10         1.7070   -2.1830    0.0600 n         1 MOL     -0.260552
    103 C32         2.4760   -2.0880   -1.1710 c3        1 MOL      0.056267
    104 C33         3.9390   -1.5980   -0.8310 c         1 MOL      0.375148
    105 O16         4.1370   -0.9570    0.2060 o         1 MOL     -0.232442
    106 C34         1.8000   -1.2780   -2.2280 c3        1 MOL     -0.107347
    107 C35         0.2830   -1.4620   -2.3380 c         1 MOL      0.693102
    108 O17        -0.4550   -0.8940   -1.5200 o         1 MOL     -0.669988
    109 O18        -0.1040   -2.1800   -3.2630 o         1 MOL     -0.669988
    110 H47         1.1520   -1.3850    0.3400 hn        1 MOL      0.088214
    111 H48         2.5720   -3.1080   -1.5340 h1        1 MOL      0.041092
    112 H49         2.3760   -1.4120   -3.1490 hc        1 MOL      0.034945
    113 H50         1.9860   -0.2150   -2.0510 hc        1 MOL      0.034945
    114 N11         4.9590   -1.7860   -1.7480 n         1 MOL     -0.542158
    115 C36         6.3960   -1.4050   -1.4540 c3        1 MOL      0.263500
    116 C37         6.5230    0.0830   -1.0820 c         1 MOL      0.265022
    117 O19         7.2670    0.3990   -0.1480 o         1 MOL     -0.455147
    118 C38         7.3800   -1.8560   -2.5560 c3        1 MOL     -0.385354
    119 C39         8.7940   -1.4270   -2.3120 ca        1 MOL      0.187596
    120 C40         9.6450   -2.2490   -1.5070 ca        1 MOL     -0.222212
    121 C41         9.3010   -0.2340   -2.8890 ca        1 MOL     -0.222212
    122 C42        10.9340   -1.7900   -1.1620 ca        1 MOL     -0.103397
    123 C43        10.6060    0.1130   -2.5830 ca        1 MOL     -0.103397
    124 C44        11.4030   -0.6080   -1.6620 ca        1 MOL     -0.077815
    125 H51         4.6980   -1.9630   -2.7010 hn        1 MOL      0.297675
    126 H52         6.5620   -2.0710   -0.6060 h1        1 MOL      0.082007
    127 H53         7.0160   -1.4460   -3.4890 hc        1 MOL      0.114472
    128 H54         7.4240   -2.9490   -2.4770 hc        1 MOL      0.114472
    129 H55         9.2930   -3.1270   -0.9840 ha        1 MOL      0.145123
    130 H56         8.7220    0.2980   -3.6290 ha        1 MOL      0.145123
    131 H57        11.4950   -2.3810   -0.4450 ha        1 MOL      0.105432
    132 H58        11.0560    1.0160   -2.9910 ha        1 MOL      0.105432
    133 H59        12.3950   -0.2520   -1.4120 ha        1 MOL      0.088800
    134 N12         5.8610    0.9860   -1.8400 n         1 MOL      0.035375
    135 C45         5.7930    2.4410   -1.4100 c3        1 MOL     -0.013598
    136 C46         5.1850    2.6520    0.0100 c         1 MOL      0.222156
    137 O20         5.3920    3.7220    0.6000 o         1 MOL     -0.509258
    138 C47         4.9880    3.1750   -2.4290 c3        1 MOL     -0.162521
    139 C48         5.1630    2.3020   -3.6500 c3        1 MOL      0.103272
    140 C49         5.1580    0.9270   -3.1300 c3        1 MOL     -0.061901
    141 H60         6.8290    2.7980   -1.3890 h1        1 MOL      0.080120
    142 H61         3.9340    3.1780   -2.1860 hc        1 MOL      0.085423
    143 H62         5.3190    4.1990   -2.6380 hc        1 MOL      0.085423
    144 H63         4.4130    2.3630   -4.4360 hc        1 MOL     -0.008857
    145 H64         6.1340    2.4670   -4.1270 hc        1 MOL     -0.008857
    146 H65         4.1440    0.5870   -2.9160 h1        1 MOL      0.042057
    147 H66         5.7290    0.2920   -3.7960 h1        1 MOL      0.042057
    148 N13         4.5740    1.6690    0.6540 n         1 MOL      0.149653
    149 C50         4.0670    1.7460    1.9980 c3        1 MOL      0.025540
    150 C51         5.0020    1.1480    2.9690 c         1 MOL      0.424658
    151 O21         5.3380    1.8520    3.9300 o         1 MOL     -0.558305
    152 C52         2.6260    1.2730    2.0280 c3        1 MOL      0.104279
    153 C53         1.8860    1.7420    0.8590 c3        1 MOL     -0.265006
    154 C54         0.4010    1.3940    0.9330 c         1 MOL      0.714126
    155 O22         0.0060    0.4130    1.5720 o         1 MOL     -0.687414
    156 O23        -0.3110    1.9760    0.1190 o         1 MOL     -0.687414
    157 H67         4.5860    0.7490    0.2320 hn        1 MOL     -0.102732
    158 H68         4.0290    2.8100    2.2610 h1        1 MOL      0.059388
    159 H69         2.1360    1.6960    2.9040 hc        1 MOL     -0.023020
    160 H70         2.5450    0.1940    2.1930 hc        1 MOL     -0.023020
    161 H71         2.2810    1.2870   -0.0400 hc        1 MOL      0.082394
    162 H72         1.9160    2.8360    0.8620 hc        1 MOL      0.082394
    163 N14         5.5110   -0.0230    2.6150 n         1 MOL     -0.142446
    164 C55         6.6510   -0.7030    3.2530 c3        1 MOL     -0.149162
    165 H73         7.3250    0.0400    3.6790 h1        1 MOL      0.066768
    166 H74         6.2870   -1.3590    4.0450 h1        1 MOL      0.066768
    167 H75         7.1860   -1.2930    2.5090 h1        1 MOL      0.066768
    168 H76         5.0780   -0.4410    1.8030 hn        1 MOL      0.109575
    169 Ca1        -2.0790    0.0150    0.1110 Ca        1 MOL      1.534602
    170 O24        -2.2810    0.0460    2.8310 oh        1 MOL     -0.805581
    171 H77        -1.3320    0.0190    2.8040 ho        1 MOL      0.378578
    172 H78        -2.5050   -0.1570    3.7440 ho        1 MOL      0.378578
    173 O25        -4.5310   -0.5340    0.8960 oh        1 MOL     -0.805581
    174 H79        -4.9250    0.3280    1.0610 ho        1 MOL      0.378578
    175 H80        -4.7850   -1.0650    1.6420 ho        1 MOL      0.378578
@<TRIPOS>BOND
     1    1    2 1   
     2    1    4 1   
     3    1    5 1   
     4    1    6 1   
     5    2    3 2   
     6    2    7 1   
     7    7    8 1   
     8    7   15 1   
     9    8    9 1   
    10    8   11 1   
    11    8   16 1   
    12    9   10 2   
    13    9   19 1   
    14   11   12 1   
    15   11   17 1   
    16   11   18 1   
    17   12   13 1   
    18   12   14 1   
    19   19   20 1   
    20   19   24 1   
    21   20   21 1   
    22   20   23 1   
    23   20   25 1   
    24   21   22 2   
    25   21   29 1   
    26   23   26 1   
    27   23   27 1   
    28   23   28 1   
    29   29   30 1   
    30   29   37 1   
    31   30   31 1   
    32   30   33 1   
    33   30   38 1   
    34   31   32 2   
    35   31   41 1   
    36   33   34 1   
    37   33   39 1   
    38   33   40 1   
    39   34   35 1   
    40   34   36 1   
    41   41   42 1   
    42   41   45 1   
    43   42   43 1   
    44   42   46 1   
    45   42   47 1   
    46   43   44 2   
    47   43   48 1   
    48   48   49 1   
    49   48   56 1   
    50   49   50 1   
    51   49   52 1   
    52   49   57 1   
    53   50   51 2   
    54   50   62 1   
    55   52   53 1   
    56   52   58 1   
    57   52   59 1   
    58   53   54 1   
    59   53   55 2   
    60   54   60 1   
    61   54   61 1   
    62   62   63 1   
    63   62   66 1   
    64   63   64 1   
    65   63   67 1   
    66   63   68 1   
    67   64   65 2   
    68   64   69 1   
    69   69   70 1   
    70   69   76 1   
    71   70   71 1   
    72   70   73 1   
    73   70   77 1   
    74   71   72 2   
    75   71   83 1   
    76   73   74 1   
    77   73   75 1   
    78   73   78 1   
    79   74   80 1   
    80   74   81 1   
    81   74   82 1   
    82   75   79 1   
    83   83   84 1   
    84   83   91 1   
    85   84   85 1   
    86   84   87 1   
    87   84   92 1   
    88   85   86 2   
    89   85  102 1   
    90   87   88 1   
    91   87   89 1   
    92   87   93 1   
    93   88   90 1   
    94   88   94 1   
    95   88   95 1   
    96   89   96 1   
    97   89   97 1   
    98   89   98 1   
    99   90   99 1   
   100   90  100 1   
   101   90  101 1   
   102  102  103 1   
   103  102  110 1   
   104  103  104 1   
   105  103  106 1   
   106  103  111 1   
   107  104  105 2   
   108  104  114 1   
   109  106  107 1   
   110  106  112 1   
   111  106  113 1   
   112  107  108 1   
   113  107  109 1   
   114  114  115 1   
   115  114  125 1   
   116  115  116 1   
   117  115  118 1   
   118  115  126 1   
   119  116  117 2   
   120  116  134 1   
   121  118  119 1   
   122  118  127 1   
   123  118  128 1   
   124  119  120 ar  
   125  119  121 ar  
   126  120  122 ar  
   127  120  129 1   
   128  121  123 ar  
   129  121  130 1   
   130  122  124 ar  
   131  122  131 1   
   132  123  124 ar  
   133  123  132 1   
   134  124  133 1   
   135  134  135 1   
   136  134  140 1   
   137  135  136 1   
   138  135  138 1   
   139  135  141 1   
   140  136  137 2   
   141  136  148 1   
   142  138  139 1   
   143  138  142 1   
   144  138  143 1   
   145  139  140 1   
   146  139  144 1   
   147  139  145 1   
   148  140  146 1   
   149  140  147 1   
   150  148  149 1   
   151  148  157 1   
   152  149  150 1   
   153  149  152 1   
   154  149  158 1   
   155  150  151 2   
   156  150  163 1   
   157  152  153 1   
   158  152  159 1   
   159  152  160 1   
   160  153  154 1   
   161  153  161 1   
   162  153  162 1   
   163  154  155 1   
   164  154  156 1   
   165  163  164 1   
   166  163  168 1   
   167  164  165 1   
   168  164  166 1   
   169  164  167 1   
   170  170  171 1   
   171  170  172 1   
   172  173  174 1   
   173  173  175 1   
@<TRIPOS>SUBSTRUCTURE
     1 MOL         1 TEMP              0 ****  ****    0 ROOT
