@<TRIPOS>MOLECULE
MOL
  186   183     1     0     0
SMALL
resp


@<TRIPOS>ATOM
      1 C1         -0.5680    3.8610    6.2730 c3        1 MOL     -0.354865
      2 C2         -0.7120    3.6140    4.7400 c         1 MOL      0.750319
      3 O1          0.3260    3.7410    4.0600 o         1 MOL     -0.638668
      4 H1         -1.2530    4.6530    6.5780 hc        1 MOL      0.089047
      5 H2         -0.8100    2.9460    6.8140 hc        1 MOL      0.089047
      6 H3          0.4550    4.1590    6.5000 hc        1 MOL      0.089047
      7 N1         -1.8350    3.1410    4.3080 n         1 MOL     -0.582995
      8 C3         -2.0130    2.7490    2.8490 c3        1 MOL      0.058863
      9 C4         -2.3080    3.9570    1.9260 c         1 MOL      0.452034
     10 O2         -2.9900    4.8430    2.3700 o         1 MOL     -0.532400
     11 C5         -3.1830    1.7310    2.7600 c3        1 MOL     -0.122731
     12 C6         -3.3140    0.9760    1.3350 c         1 MOL      0.708185
     13 O3         -3.2920    1.5650    0.2120 o         1 MOL     -0.748935
     14 O4         -3.2440   -0.2880    1.2540 o         1 MOL     -0.748935
     15 H4         -2.6090    3.1680    4.9590 hn        1 MOL      0.331638
     16 H5         -1.0820    2.2770    2.5260 h1        1 MOL      0.045653
     17 H6         -4.1680    2.1480    2.9560 hc        1 MOL      0.052527
     18 H7         -3.0980    0.9780    3.5370 hc        1 MOL      0.052527
     19 N2         -1.7730    4.0320    0.7050 n         1 MOL     -0.168245
     20 C7         -1.7380    5.2120   -0.1600 c3        1 MOL     -0.097156
     21 C8         -2.7660    5.1480   -1.2920 c         1 MOL      0.511910
     22 O5         -3.2520    6.1790   -1.6760 o         1 MOL     -0.547174
     23 C9         -0.3540    5.2540   -0.8240 c3        1 MOL      0.096634
     24 C10         0.7430    5.4850    0.2130 c3        1 MOL     -0.104175
     25 C11         2.0780    5.7250   -0.5350 c3        1 MOL     -0.214320
     26 C12         3.2790    5.7260    0.4780 c3        1 MOL      0.223842
     27 N3          4.5240    5.9270   -0.2290 n4        1 MOL     -0.432466
     28 H8         -1.2150    3.2530    0.3490 hn        1 MOL      0.233519
     29 H9         -1.8600    6.1070    0.4500 h1        1 MOL      0.098372
     30 H10        -0.2710    6.0770   -1.5370 hc        1 MOL     -0.004179
     31 H11        -0.2230    4.3350   -1.3920 hc        1 MOL     -0.004179
     32 H12         0.7860    4.6140    0.8670 hc        1 MOL      0.059958
     33 H13         0.4480    6.4400    0.6710 hc        1 MOL      0.059958
     34 H14         1.9820    6.6560   -1.0940 hc        1 MOL      0.079593
     35 H15         2.3140    4.8360   -1.1180 hc        1 MOL      0.079593
     36 H16         3.3940    4.7420    0.9280 hx        1 MOL      0.045515
     37 H17         3.1700    6.4250    1.3020 hx        1 MOL      0.045515
     38 H18         4.7820    5.0560   -0.6790 hn        1 MOL      0.326672
     39 H19         4.5740    6.6800   -0.9010 hn        1 MOL      0.326672
     40 H20         5.2530    6.0150    0.4760 hn        1 MOL      0.326672
     41 N4         -3.1170    3.9060   -1.7080 n         1 MOL     -0.326093
     42 C13        -4.1360    3.7350   -2.8590 c3        1 MOL      0.043508
     43 C14        -5.4700    3.1450   -2.3650 c         1 MOL      0.447336
     44 O6         -6.5390    3.3260   -2.9690 o         1 MOL     -0.536893
     45 C15        -3.4090    2.8670   -3.9760 c3        1 MOL     -0.195163
     46 C16        -3.0310    1.5500   -3.3350 c         1 MOL      0.842172
     47 O7         -3.8560    0.7370   -2.9010 o         1 MOL     -0.811116
     48 O8         -1.8310    1.3390   -2.9830 o         1 MOL     -0.811116
     49 H21        -2.8050    3.0890   -1.2150 hn        1 MOL      0.165518
     50 H22        -4.3190    4.7090   -3.2930 h1        1 MOL      0.104530
     51 H23        -2.4890    3.2700   -4.3800 hc        1 MOL      0.048000
     52 H24        -4.1000    2.7220   -4.8100 hc        1 MOL      0.048000
     53 N5         -5.5270    2.7070   -1.0990 n         1 MOL     -0.148700
     54 C17        -6.7320    2.4030   -0.3170 c3        1 MOL     -0.228182
     55 C18        -7.2270    0.9630   -0.7210 c         1 MOL      0.561289
     56 O9         -8.3950    0.6730   -0.4030 o         1 MOL     -0.588086
     57 H25        -4.6690    2.4850   -0.6240 hn        1 MOL      0.154508
     58 H26        -7.5620    3.1060   -0.3240 h1        1 MOL      0.121459
     59 H27        -6.4720    2.0770    0.6860 h1        1 MOL      0.121459
     60 N6         -6.4300    0.1050   -1.3760 n         1 MOL     -0.256679
     61 C19        -6.9430   -1.2590   -1.8020 c3        1 MOL     -0.062897
     62 C20        -7.0720   -2.3590   -0.7180 c         1 MOL      0.383963
     63 O10        -7.5960   -3.4610   -0.9620 o         1 MOL     -0.488825
     64 C21        -6.1170   -1.7200   -3.0400 c3        1 MOL     -0.263422
     65 C22        -4.6800   -2.0920   -2.6040 c         1 MOL      0.948344
     66 O11        -4.2880   -1.9950   -1.4150 o         1 MOL     -0.706768
     67 O12        -3.9640   -2.5820   -3.5010 o         1 MOL     -0.706768
     68 H28        -5.4570    0.3600   -1.4780 hn        1 MOL      0.205502
     69 H29        -7.9200   -1.0900   -2.2510 h1        1 MOL      0.139249
     70 H30        -6.0770   -0.8800   -3.7380 hc        1 MOL      0.085831
     71 H31        -6.5750   -2.5760   -3.5330 hc        1 MOL      0.085831
     72 N7         -6.5520   -2.1130    0.5120 n         1 MOL     -0.241148
     73 C23        -6.6490   -3.1160    1.5970 c3        1 MOL     -0.227199
     74 C24        -5.4280   -4.0250    1.7030 c         1 MOL      0.520183
     75 O13        -5.5860   -5.0720    2.3510 o         1 MOL     -0.573686
     76 H32        -6.1880   -1.1920    0.7390 hn        1 MOL      0.261703
     77 H33        -7.4880   -3.7670    1.3640 h1        1 MOL      0.125475
     78 H34        -6.7610   -2.5530    2.5230 h1        1 MOL      0.125475
     79 N8         -4.3200   -3.7050    0.9930 n         1 MOL     -0.147512
     80 C25        -3.0110   -4.4580    0.8890 c3        1 MOL     -0.327666
     81 C26        -1.8060   -3.5920    0.8340 c         1 MOL      0.663249
     82 O14        -1.7160   -2.5850    0.0530 o         1 MOL     -0.656749
     83 C27        -3.0350   -5.3150   -0.3110 c3        1 MOL      0.623742
     84 C28        -3.6370   -6.7400   -0.0880 c3        1 MOL     -0.550734
     85 O15        -3.5970   -4.7260   -1.5160 oh        1 MOL     -0.679158
     86 H35        -4.3460   -2.7680    0.6140 hn        1 MOL      0.186841
     87 H36        -2.9940   -5.2290    1.6650 h1        1 MOL      0.107109
     88 H37        -1.9970   -5.4730   -0.5860 h1        1 MOL     -0.072670
     89 H38        -3.8330   -3.8000   -1.5030 ho        1 MOL      0.372632
     90 H39        -3.0080   -7.2700    0.6340 hc        1 MOL      0.143389
     91 H40        -4.6460   -6.6060    0.2950 hc        1 MOL      0.143389
     92 H41        -3.6690   -7.2260   -1.0650 hc        1 MOL      0.143389
     93 N9         -0.8440   -3.9210    1.6790 n         1 MOL     -0.464244
     94 C29         0.3540   -3.1400    1.9550 c3        1 MOL      0.107787
     95 C30         1.5180   -3.6100    1.1570 c         1 MOL      0.455999
     96 O16         1.9820   -4.7140    1.3010 o         1 MOL     -0.560987
     97 C31         0.7080   -3.2120    3.4240 c3        1 MOL      0.040976
     98 C32        -0.4610   -2.7720    4.3110 c3        1 MOL     -0.073806
     99 C33         1.8910   -2.2820    3.7450 c3        1 MOL     -0.396846
    100 C34        -1.1470   -1.4000    4.0360 c3        1 MOL     -0.069318
    101 H42        -1.0470   -4.7770    2.1700 hn        1 MOL      0.292282
    102 H43         0.2070   -2.0900    1.7050 h1        1 MOL      0.068801
    103 H44         1.0600   -4.2170    3.6590 hc        1 MOL      0.016636
    104 H45        -0.0810   -2.8160    5.3310 hc        1 MOL      0.026520
    105 H46        -1.2880   -3.4750    4.1870 hc        1 MOL      0.026520
    106 H47         2.2320   -2.2700    4.7860 hc        1 MOL      0.107201
    107 H48         2.7100   -2.4100    3.0380 hc        1 MOL      0.107201
    108 H49         1.5000   -1.2710    3.6270 hc        1 MOL      0.107201
    109 H50        -1.6490   -1.3880    3.0650 hc        1 MOL      0.033932
    110 H51        -1.9890   -1.3210    4.7200 hc        1 MOL      0.033932
    111 H52        -0.4330   -0.6060    4.2320 hc        1 MOL      0.033932
    112 N10         2.0080   -2.7930    0.2180 n         1 MOL     -0.013954
    113 C35         3.1920   -3.0130   -0.6880 c3        1 MOL     -0.099600
    114 C36         4.4700   -2.5820   -0.0470 c         1 MOL      0.255502
    115 O17         4.5360   -1.7930    0.9420 o         1 MOL     -0.189753
    116 C37         3.0630   -2.2500   -2.0230 c3        1 MOL      0.301308
    117 C38         1.8440   -2.5680   -2.9310 c3        1 MOL     -0.433466
    118 O18         2.9560   -0.9030   -1.7480 oh        1 MOL     -0.589970
    119 H53         1.5510   -1.8930    0.1390 hn        1 MOL     -0.026356
    120 H54         3.1490   -4.0670   -0.9430 h1        1 MOL      0.092109
    121 H55         4.0470   -2.2960   -2.4750 h1        1 MOL     -0.006940
    122 H56         2.1170   -0.8610   -1.2860 ho        1 MOL      0.407529
    123 H57         0.9480   -2.2550   -2.4000 hc        1 MOL      0.123974
    124 H58         1.9300   -1.9730   -3.8410 hc        1 MOL      0.123974
    125 H59         1.7920   -3.6270   -3.1950 hc        1 MOL      0.123974
    126 N11         5.5770   -2.9510   -0.6250 n         1 MOL     -0.250136
    127 C39         6.8900   -2.6640   -0.0320 c3        1 MOL     -0.098921
    128 C40         7.1860   -1.1810    0.3270 c         1 MOL      0.292818
    129 O19         7.7960   -0.8920    1.3410 o         1 MOL     -0.462587
    130 C41         7.9680   -2.9940   -1.1590 c3        1 MOL      0.345349
    131 C42         8.2240   -4.5060   -1.2260 c3        1 MOL     -0.433122
    132 O20         7.5310   -2.5040   -2.4350 oh        1 MOL     -0.607651
    133 H60         5.4940   -3.5130   -1.4600 hn        1 MOL      0.259901
    134 H61         7.0290   -3.2650    0.8640 h1        1 MOL      0.152340
    135 H62         8.9420   -2.5320   -0.9800 h1        1 MOL      0.026867
    136 H63         8.3380   -2.4700   -2.9600 ho        1 MOL      0.334022
    137 H64         8.8080   -4.6510   -2.1260 hc        1 MOL      0.124613
    138 H65         8.7320   -4.7780   -0.2960 hc        1 MOL      0.124613
    139 H66         7.2830   -5.0700   -1.2970 hc        1 MOL      0.124613
    140 N12         6.6620   -0.2790   -0.5240 n         1 MOL     -0.215638
    141 C43         6.7000    1.1810   -0.4100 c3        1 MOL     -0.049209
    142 C44         5.6020    1.8010    0.5180 c         1 MOL      0.445266
    143 O21         5.4380    3.0110    0.5810 o         1 MOL     -0.602360
    144 C45         6.6310    1.7990   -1.8370 c3        1 MOL     -0.250640
    145 C46         7.2730    0.9710   -2.9900 c3        1 MOL      0.182836
    146 C47         7.4350    1.6630   -4.3240 c3        1 MOL     -0.015313
    147 C48         7.5610    0.6650   -5.4450 c3        1 MOL     -0.064478
    148 N13         8.8660   -0.1080   -5.3560 n4        1 MOL     -0.288392
    149 H67         6.0400   -0.6430   -1.2330 hn        1 MOL      0.295092
    150 H68         7.7040    1.4320   -0.0650 h1        1 MOL      0.134739
    151 H69         7.0510    2.7960   -1.8830 hc        1 MOL      0.075712
    152 H70         5.6130    1.9630   -2.1950 hc        1 MOL      0.075712
    153 H71         6.6930    0.0500   -3.0380 hc        1 MOL     -0.040082
    154 H72         8.2390    0.5290   -2.7610 hc        1 MOL     -0.040082
    155 H73         8.2900    2.3440   -4.2680 hc        1 MOL      0.034382
    156 H74         6.5820    2.2780   -4.6080 hc        1 MOL      0.034382
    157 H75         7.4650    1.2480   -6.3560 hx        1 MOL      0.130539
    158 H76         6.7110   -0.0120   -5.3620 hx        1 MOL      0.130539
    159 H77         8.9200   -0.8900   -6.0020 hn        1 MOL      0.272015
    160 H78         9.6440    0.4920   -5.5790 hn        1 MOL      0.272015
    161 H79         9.1100   -0.5200   -4.4680 hn        1 MOL      0.272015
    162 N14         4.8010    1.0140    1.2900 n         1 MOL      0.009308
    163 C49         3.7980    1.3460    2.2730 c3        1 MOL      0.026233
    164 C50         4.1930    0.6380    3.6100 c         1 MOL      0.238519
    165 O22         4.0970    1.2270    4.7200 o         1 MOL     -0.492495
    166 C51         2.4550    0.8630    1.7860 c3        1 MOL      0.085281
    167 C52         1.9290    1.5040    0.4480 c3        1 MOL     -0.110522
    168 C53         0.6310    0.7790    0.0210 c         1 MOL      0.639059
    169 O23         0.7010   -0.4370   -0.3420 o         1 MOL     -0.645703
    170 O24        -0.4470    1.4070    0.1390 o         1 MOL     -0.645703
    171 H80         4.9370    0.0250    1.1870 hn        1 MOL     -0.161768
    172 H81         3.7700    2.4200    2.4880 h1        1 MOL      0.090293
    173 H82         1.7630    1.1310    2.5930 hc        1 MOL      0.049776
    174 H83         2.4700   -0.2210    1.7160 hc        1 MOL      0.049776
    175 H84         2.6440    1.3730   -0.3630 hc        1 MOL      0.004741
    176 H85         1.7550    2.5530    0.6890 hc        1 MOL      0.004741
    177 N15         4.7840   -0.5620    3.5310 n         1 MOL      0.046390
    178 C54         5.4270   -1.1760    4.6800 c3        1 MOL     -0.318371
    179 H86         4.9230   -0.8570    5.5910 h1        1 MOL      0.115328
    180 H87         5.3680   -2.2620    4.5930 h1        1 MOL      0.115328
    181 H88         6.4730   -0.8710    4.7190 h1        1 MOL      0.115328
    182 H89         4.9220   -0.9890    2.6220 hn        1 MOL      0.130382
    183 Ca1        -2.1640   -0.2890   -1.1020 Ca        1 MOL      1.784907
    184 O25        -1.4470   -1.9300   -3.2260 oh        1 MOL     -0.918996
    185 H90        -1.0480   -2.0490   -4.0890 ho        1 MOL      0.428307
    186 H91        -2.2440   -2.4740   -3.2550 ho        1 MOL      0.428307
@<TRIPOS>BOND
     1    1    2 1   
     2    1    4 1   
     3    1    5 1   
     4    1    6 1   
     5    2    3 2   
     6    2    7 1   
     7    7    8 1   
     8    7   15 1   
     9    8    9 1   
    10    8   11 1   
    11    8   16 1   
    12    9   10 2   
    13    9   19 1   
    14   11   12 1   
    15   11   17 1   
    16   11   18 1   
    17   12   13 1   
    18   12   14 1   
    19   19   20 1   
    20   19   28 1   
    21   20   21 1   
    22   20   23 1   
    23   20   29 1   
    24   21   22 2   
    25   21   41 1   
    26   23   24 1   
    27   23   30 1   
    28   23   31 1   
    29   24   25 1   
    30   24   32 1   
    31   24   33 1   
    32   25   26 1   
    33   25   34 1   
    34   25   35 1   
    35   26   27 1   
    36   26   36 1   
    37   26   37 1   
    38   27   38 1   
    39   27   39 1   
    40   27   40 1   
    41   41   42 1   
    42   41   49 1   
    43   42   43 1   
    44   42   45 1   
    45   42   50 1   
    46   43   44 2   
    47   43   53 1   
    48   45   46 1   
    49   45   51 1   
    50   45   52 1   
    51   46   47 1   
    52   46   48 1   
    53   53   54 1   
    54   53   57 1   
    55   54   55 1   
    56   54   58 1   
    57   54   59 1   
    58   55   56 2   
    59   55   60 1   
    60   60   61 1   
    61   60   68 1   
    62   61   62 1   
    63   61   64 1   
    64   61   69 1   
    65   62   63 2   
    66   62   72 1   
    67   64   65 1   
    68   64   70 1   
    69   64   71 1   
    70   65   66 1   
    71   65   67 1   
    72   72   73 1   
    73   72   76 1   
    74   73   74 1   
    75   73   77 1   
    76   73   78 1   
    77   74   75 2   
    78   74   79 1   
    79   79   80 1   
    80   79   86 1   
    81   80   81 1   
    82   80   83 1   
    83   80   87 1   
    84   81   82 2   
    85   81   93 1   
    86   83   84 1   
    87   83   85 1   
    88   83   88 1   
    89   84   90 1   
    90   84   91 1   
    91   84   92 1   
    92   85   89 1   
    93   93   94 1   
    94   93  101 1   
    95   94   95 1   
    96   94   97 1   
    97   94  102 1   
    98   95   96 2   
    99   95  112 1   
   100   97   98 1   
   101   97   99 1   
   102   97  103 1   
   103   98  100 1   
   104   98  104 1   
   105   98  105 1   
   106   99  106 1   
   107   99  107 1   
   108   99  108 1   
   109  100  109 1   
   110  100  110 1   
   111  100  111 1   
   112  112  113 1   
   113  112  119 1   
   114  113  114 1   
   115  113  116 1   
   116  113  120 1   
   117  114  115 2   
   118  114  126 1   
   119  116  117 1   
   120  116  118 1   
   121  116  121 1   
   122  117  123 1   
   123  117  124 1   
   124  117  125 1   
   125  118  122 1   
   126  126  127 1   
   127  126  133 1   
   128  127  128 1   
   129  127  130 1   
   130  127  134 1   
   131  128  129 2   
   132  128  140 1   
   133  130  131 1   
   134  130  132 1   
   135  130  135 1   
   136  131  137 1   
   137  131  138 1   
   138  131  139 1   
   139  132  136 1   
   140  140  141 1   
   141  140  149 1   
   142  141  142 1   
   143  141  144 1   
   144  141  150 1   
   145  142  143 2   
   146  142  162 1   
   147  144  145 1   
   148  144  151 1   
   149  144  152 1   
   150  145  146 1   
   151  145  153 1   
   152  145  154 1   
   153  146  147 1   
   154  146  155 1   
   155  146  156 1   
   156  147  148 1   
   157  147  157 1   
   158  147  158 1   
   159  148  159 1   
   160  148  160 1   
   161  148  161 1   
   162  162  163 1   
   163  162  171 1   
   164  163  164 1   
   165  163  166 1   
   166  163  172 1   
   167  164  165 2   
   168  164  177 1   
   169  166  167 1   
   170  166  173 1   
   171  166  174 1   
   172  167  168 1   
   173  167  175 1   
   174  167  176 1   
   175  168  169 1   
   176  168  170 1   
   177  177  178 1   
   178  177  182 1   
   179  178  179 1   
   180  178  180 1   
   181  178  181 1   
   182  184  185 1   
   183  184  186 1   
@<TRIPOS>SUBSTRUCTURE
     1 MOL         1 TEMP              0 ****  ****    0 ROOT
