@<TRIPOS>MOLECULE
MOL
  189   185     1     0     0
SMALL
resp


@<TRIPOS>ATOM
      1 C1         -0.3290    2.5970    5.4140 c3        1 MOL     -0.390178
      2 C2         -0.6680    2.3140    3.9360 c         1 MOL      0.661267
      3 O1          0.0690    2.6950    2.9890 o         1 MOL     -0.621966
      4 H1          0.1480    1.7190    5.8510 hc        1 MOL      0.101295
      5 H2          0.3500    3.4470    5.4760 hc        1 MOL      0.101295
      6 H3         -1.2450    2.8220    5.9600 hc        1 MOL      0.101295
      7 N1         -1.8030    1.6690    3.6530 n         1 MOL     -0.527524
      8 C3         -2.3780    1.4800    2.3420 c3        1 MOL      0.375694
      9 C4         -2.9130    2.8750    1.8070 c         1 MOL      0.202617
     10 O2         -3.8190    3.4710    2.4320 o         1 MOL     -0.509448
     11 C5         -3.6110    0.5180    2.5260 c3        1 MOL     -0.549372
     12 C6         -4.3840    0.1980    1.2500 c         1 MOL      1.036120
     13 O3         -5.5540   -0.1780    1.2760 o         1 MOL     -0.739005
     14 O4         -3.8120    0.4020    0.1240 o         1 MOL     -0.739005
     15 H4         -2.3050    1.2440    4.4190 hn        1 MOL      0.308515
     16 H5         -1.6910    1.0480    1.6050 h1        1 MOL     -0.014931
     17 H6         -4.3280    1.0750    3.1300 hc        1 MOL      0.111639
     18 H7         -3.1900   -0.3900    2.9540 hc        1 MOL      0.111639
     19 N2         -2.3130    3.3670    0.6920 n         1 MOL      0.053671
     20 C7         -2.6150    4.7400    0.1590 c3        1 MOL      0.162598
     21 C8         -3.7190    4.7850   -0.9020 c         1 MOL      0.256305
     22 O5         -4.4320    5.8190   -0.9810 o         1 MOL     -0.530673
     23 C9         -1.3160    5.3540   -0.3400 c3        1 MOL     -0.323458
     24 C10        -0.4810    5.8370    0.8290 c3        1 MOL      0.172269
     25 C11        -0.8860    7.2290    1.3430 c3        1 MOL     -0.177446
     26 C12        -0.0100    7.6590    2.5540 c3        1 MOL     -0.147661
     27 N3         -0.0190    6.6690    3.6990 n4        1 MOL     -0.328204
     28 H8         -1.6610    2.7900    0.1780 hn        1 MOL      0.092318
     29 H9         -2.9700    5.3940    0.9530 h1        1 MOL      0.009534
     30 H10        -1.4710    6.2290   -0.9670 hc        1 MOL      0.109311
     31 H11        -0.7660    4.5710   -0.8580 hc        1 MOL      0.109311
     32 H12         0.5320    5.9840    0.4510 hc        1 MOL     -0.000042
     33 H13        -0.4570    5.0890    1.6210 hc        1 MOL     -0.000042
     34 H14        -1.9280    7.2170    1.6590 hc        1 MOL      0.105711
     35 H15        -0.8070    8.0090    0.5800 hc        1 MOL      0.105711
     36 H16        -0.3630    8.6320    2.8850 hx        1 MOL      0.136178
     37 H17         1.0130    7.7660    2.1780 hx        1 MOL      0.136178
     38 H18         0.1490    5.7160    3.3960 hn        1 MOL      0.323486
     39 H19         0.6720    6.9110    4.3960 hn        1 MOL      0.323486
     40 H20        -0.9190    6.5790    4.1430 hn        1 MOL      0.323486
     41 N4         -3.7110    3.8400   -1.8310 n         1 MOL     -0.107752
     42 C13        -4.6400    3.7460   -2.9530 c3        1 MOL      0.073055
     43 C14        -5.9360    2.9000   -2.5160 c         1 MOL      0.448867
     44 O6         -6.9080    2.9340   -3.2910 o         1 MOL     -0.544566
     45 C15        -3.8810    3.2060   -4.1620 c3        1 MOL     -0.376717
     46 C16        -2.9740    1.9840   -3.9690 c         1 MOL      0.874694
     47 O7         -2.0530    1.7500   -4.7530 o         1 MOL     -0.719540
     48 O8         -3.0470    1.1900   -3.0130 o         1 MOL     -0.719540
     49 H21        -3.1080    3.0360   -1.7580 hn        1 MOL      0.107497
     50 H22        -4.9460    4.7850   -3.0720 h1        1 MOL      0.080019
     51 H23        -3.2550    3.9930   -4.5760 hc        1 MOL      0.098731
     52 H24        -4.6990    3.0130   -4.8510 hc        1 MOL      0.098731
     53 N5         -5.9160    2.2160   -1.4070 n         1 MOL     -0.162132
     54 C17        -7.1800    1.6420   -0.8390 c3        1 MOL     -0.280309
     55 C18        -7.5980    0.1830   -1.1340 c         1 MOL      0.584830
     56 O9         -8.7310   -0.1730   -0.7920 o         1 MOL     -0.587420
     57 H25        -5.0720    1.7860   -1.0600 hn        1 MOL      0.075948
     58 H26        -7.9610    2.3770   -1.0380 h1        1 MOL      0.145701
     59 H27        -7.1500    1.6510    0.2530 h1        1 MOL      0.145701
     60 N6         -6.6760   -0.6400   -1.6430 n         1 MOL     -0.334937
     61 C19        -6.9150   -2.0400   -2.0180 c3        1 MOL      0.033047
     62 C20        -6.9920   -3.0040   -0.7760 c         1 MOL      0.369527
     63 O10        -7.1830   -4.1860   -0.9300 o         1 MOL     -0.512720
     64 C21        -5.8080   -2.5550   -3.0210 c3        1 MOL     -0.275780
     65 C22        -4.3890   -2.1140   -2.6680 c         1 MOL      0.745946
     66 O11        -3.6620   -1.5970   -3.5490 o         1 MOL     -0.676479
     67 O12        -3.9090   -2.4130   -1.5560 o         1 MOL     -0.676479
     68 H28        -5.7380   -0.2790   -1.5780 hn        1 MOL      0.221056
     69 H29        -7.9010   -2.1960   -2.4610 h1        1 MOL      0.114236
     70 H30        -6.1200   -2.1250   -3.9730 hc        1 MOL      0.084761
     71 H31        -5.8770   -3.6390   -3.0870 hc        1 MOL      0.084761
     72 N7         -6.7350   -2.6050    0.4790 n         1 MOL     -0.167590
     73 C23        -6.6110   -3.4980    1.5990 c3        1 MOL     -0.228660
     74 C24        -5.3100   -4.3020    1.6380 c         1 MOL      0.584810
     75 O13        -5.2110   -5.3370    2.3100 o         1 MOL     -0.602358
     76 H32        -6.6440   -1.6140    0.6780 hn        1 MOL      0.287928
     77 H33        -7.3740   -4.2650    1.4400 h1        1 MOL      0.104160
     78 H34        -6.7940   -2.9640    2.5360 h1        1 MOL      0.104160
     79 N8         -4.2510   -3.8670    0.9800 n         1 MOL     -0.098204
     80 C25        -2.8420   -4.3530    1.2140 c3        1 MOL     -0.346249
     81 C26        -1.7270   -3.2190    1.2580 c         1 MOL      0.678925
     82 O14        -1.9020   -2.1250    0.6940 o         1 MOL     -0.590630
     83 C27        -2.3720   -5.2830    0.0620 c3        1 MOL      0.563330
     84 C28        -2.8030   -6.7260    0.5270 c3        1 MOL     -0.427174
     85 O15        -3.0380   -5.1050   -1.1730 oh        1 MOL     -0.681319
     86 H35        -4.3780   -3.0420    0.4130 hn        1 MOL      0.013901
     87 H36        -2.8840   -4.8320    2.1960 h1        1 MOL      0.147655
     88 H37        -1.3020   -5.2180   -0.1380 h1        1 MOL     -0.061476
     89 H38        -3.2590   -4.1730   -1.2500 ho        1 MOL      0.497392
     90 H39        -2.3430   -6.8920    1.4950 hc        1 MOL      0.102243
     91 H40        -3.8820   -6.8350    0.6220 hc        1 MOL      0.102243
     92 H41        -2.4330   -7.4670   -0.1780 hc        1 MOL      0.102243
     93 N9         -0.6540   -3.5030    1.9800 n         1 MOL     -0.670305
     94 C29         0.5190   -2.5930    2.1250 c3        1 MOL      0.121908
     95 C30         1.6110   -3.2130    1.2430 c         1 MOL      0.500184
     96 O16         2.0310   -4.3980    1.4300 o         1 MOL     -0.549619
     97 C31         1.0100   -2.6200    3.5960 c3        1 MOL      0.149496
     98 C32        -0.0660   -2.2670    4.6050 c3        1 MOL      0.090706
     99 C33         2.1810   -1.6510    3.7240 c3        1 MOL     -0.270533
    100 C34         0.2210   -2.3790    6.0550 c3        1 MOL     -0.039141
    101 H42        -0.6330   -4.4220    2.3880 hn        1 MOL      0.335974
    102 H43         0.3150   -1.5640    1.8260 h1        1 MOL      0.113400
    103 H44         1.3090   -3.6390    3.8550 hc        1 MOL     -0.012779
    104 H45        -0.8930   -2.9720    4.5240 hc        1 MOL     -0.022569
    105 H46        -0.4280   -1.2590    4.3900 hc        1 MOL     -0.022569
    106 H47         2.9040   -1.7120    2.9150 hc        1 MOL      0.049863
    107 H48         1.8040   -0.6240    3.7230 hc        1 MOL      0.049863
    108 H49         2.7630   -1.7870    4.6310 hc        1 MOL      0.049863
    109 H50        -0.3770   -1.7380    6.7080 hc        1 MOL      0.005175
    110 H51         0.1000   -3.3880    6.4530 hc        1 MOL      0.005175
    111 H52         1.2600   -2.0720    6.1830 hc        1 MOL      0.005175
    112 N10         2.2440   -2.4030    0.3420 n         1 MOL     -0.432236
    113 C35         3.5850   -2.6940   -0.3480 c3        1 MOL      0.186062
    114 C36         4.7970   -2.2200    0.4760 c         1 MOL      0.322507
    115 O17         4.6940   -1.4330    1.4120 o         1 MOL     -0.302516
    116 C37         3.7090   -2.0380   -1.6880 c3        1 MOL      0.059971
    117 C38         2.4900   -2.1430   -2.6650 c3        1 MOL     -0.392157
    118 O18         4.0250   -0.6640   -1.5240 oh        1 MOL     -0.485248
    119 H53         1.9120   -1.4550    0.2950 hn        1 MOL      0.271397
    120 H54         3.7680   -3.7530   -0.5160 h1        1 MOL      0.056903
    121 H55         4.5670   -2.4560   -2.1910 h1        1 MOL      0.022588
    122 H56         3.8280   -0.3010   -2.3980 ho        1 MOL      0.418219
    123 H57         2.2030   -3.1780   -2.8630 hc        1 MOL      0.117406
    124 H58         1.6740   -1.5190   -2.2940 hc        1 MOL      0.117406
    125 H59         2.6620   -1.6210   -3.6060 hc        1 MOL      0.117406
    126 N11         5.9830   -2.7190    0.1320 n         1 MOL     -0.308686
    127 C39         7.3050   -2.3670    0.6500 c3        1 MOL     -0.048758
    128 C40         7.5840   -0.7960    0.5770 c         1 MOL      0.249855
    129 O19         8.3370   -0.2390    1.4200 o         1 MOL     -0.472160
    130 C41         8.5270   -3.0740    0.0540 c3        1 MOL      0.256739
    131 C42         8.5440   -4.5610    0.2880 c3        1 MOL     -0.357011
    132 O20         8.5170   -2.7540   -1.2710 oh        1 MOL     -0.636065
    133 H60         5.9650   -3.3900   -0.6130 hn        1 MOL      0.257567
    134 H61         7.4000   -2.6700    1.6900 h1        1 MOL      0.118189
    135 H62         9.4160   -2.6300    0.5290 h1        1 MOL      0.053460
    136 H63         9.1730   -3.2890   -1.7230 ho        1 MOL      0.415312
    137 H64         8.6470   -4.7830    1.3400 hc        1 MOL      0.108444
    138 H65         7.6080   -5.0600    0.0190 hc        1 MOL      0.108444
    139 H66         9.3510   -5.0400   -0.2690 hc        1 MOL      0.108444
    140 N12         7.0650   -0.1180   -0.4960 n         1 MOL      0.016136
    141 C43         7.3030    1.3070   -0.7360 c3        1 MOL     -0.023134
    142 C44         6.2220    2.2440   -0.0520 c         1 MOL      0.323930
    143 O21         6.4810    3.3610    0.4340 o         1 MOL     -0.503991
    144 C45         7.4970    1.5390   -2.2230 c3        1 MOL     -0.042889
    145 C46         8.6750    0.6090   -2.7460 c3        1 MOL     -0.074198
    146 C47         8.9190    1.0350   -4.1940 c3        1 MOL      0.086007
    147 C48        10.2550    0.5090   -4.7380 c3        1 MOL      0.133827
    148 N13        10.2470    0.7530   -6.2090 n4        1 MOL     -0.487031
    149 H67         6.6040   -0.6460   -1.2150 hn        1 MOL      0.161299
    150 H68         8.2200    1.5870   -0.2220 h1        1 MOL      0.089460
    151 H69         7.8400    2.5710   -2.2880 hc        1 MOL      0.028657
    152 H70         6.5550    1.4420   -2.7490 hc        1 MOL      0.028657
    153 H71         8.4350   -0.4450   -2.6180 hc        1 MOL      0.032391
    154 H72         9.5840    0.7340   -2.1710 hc        1 MOL      0.032391
    155 H73         8.9070    2.1220   -4.2690 hc        1 MOL     -0.007697
    156 H74         8.1580    0.5470   -4.8050 hc        1 MOL     -0.007697
    157 H75        10.2800   -0.5430   -4.4510 hx        1 MOL      0.056110
    158 H76        11.0870    0.9960   -4.2200 hx        1 MOL      0.056110
    159 H77        11.0850    0.3930   -6.6470 hn        1 MOL      0.337002
    160 H78         9.4890    0.2200   -6.6190 hn        1 MOL      0.337002
    161 H79        10.2520    1.7410   -6.4110 hn        1 MOL      0.337002
    162 N14         5.0370    1.7600    0.0850 n         1 MOL     -0.042111
    163 C49         3.9750    2.2740    0.9480 c3        1 MOL     -0.174708
    164 C50         4.4250    2.2890    2.4110 c         1 MOL      0.466751
    165 O22         4.3550    3.2670    3.1430 o         1 MOL     -0.548852
    166 C51         2.7400    1.3720    0.7700 c3        1 MOL      0.067409
    167 C52         1.8870    1.6880   -0.5010 c3        1 MOL      0.020821
    168 C53         0.5930    0.9480   -0.5960 c         1 MOL      0.675484
    169 O23        -0.4030    1.6310   -0.9100 o         1 MOL     -0.684697
    170 O24         0.3820   -0.2410   -0.3010 o         1 MOL     -0.684697
    171 H80         4.8310    0.8680   -0.3690 hn        1 MOL      0.065944
    172 H81         3.7260    3.3030    0.6840 h1        1 MOL      0.097282
    173 H82         2.0920    1.4380    1.6430 hc        1 MOL      0.002483
    174 H83         2.9430    0.3010    0.7560 hc        1 MOL      0.002483
    175 H84         2.5170    1.4010   -1.3490 hc        1 MOL     -0.043852
    176 H85         1.7380    2.7550   -0.6130 hc        1 MOL     -0.043852
    177 N15         4.8800    1.1110    2.7700 n         1 MOL     -0.047619
    178 C54         5.5080    0.9170    4.1190 c3        1 MOL     -0.230051
    179 H86         6.0610   -0.0230    4.1300 h1        1 MOL      0.095895
    180 H87         6.1910    1.7420    4.3250 h1        1 MOL      0.095895
    181 H88         4.7300    0.8900    4.8830 h1        1 MOL      0.095895
    182 H89         4.7120    0.3290    2.1570 hn        1 MOL      0.076248
    183 Ca1        -2.0090   -0.6190   -1.5100 Ca        1 MOL      1.685416
    184 O25        -0.6980   -0.2420   -3.7040 oh        1 MOL     -0.892262
    185 H90        -1.2060    0.5150   -4.0000 ho        1 MOL      0.419205
    186 H91        -0.5540   -0.7550   -4.5070 ho        1 MOL      0.419205
    187 O26        -0.9190   -2.8900   -2.1900 oh        1 MOL     -0.892262
    188 H92        -0.9110   -3.6300   -2.7960 ho        1 MOL      0.419205
    189 H93        -0.0080   -2.7700   -1.9480 ho        1 MOL      0.419205
@<TRIPOS>BOND
     1    1    2 1   
     2    1    4 1   
     3    1    5 1   
     4    1    6 1   
     5    2    3 2   
     6    2    7 1   
     7    7    8 1   
     8    7   15 1   
     9    8    9 1   
    10    8   11 1   
    11    8   16 1   
    12    9   10 2   
    13    9   19 1   
    14   11   12 1   
    15   11   17 1   
    16   11   18 1   
    17   12   13 1   
    18   12   14 1   
    19   19   20 1   
    20   19   28 1   
    21   20   21 1   
    22   20   23 1   
    23   20   29 1   
    24   21   22 2   
    25   21   41 1   
    26   23   24 1   
    27   23   30 1   
    28   23   31 1   
    29   24   25 1   
    30   24   32 1   
    31   24   33 1   
    32   25   26 1   
    33   25   34 1   
    34   25   35 1   
    35   26   27 1   
    36   26   36 1   
    37   26   37 1   
    38   27   38 1   
    39   27   39 1   
    40   27   40 1   
    41   41   42 1   
    42   41   49 1   
    43   42   43 1   
    44   42   45 1   
    45   42   50 1   
    46   43   44 2   
    47   43   53 1   
    48   45   46 1   
    49   45   51 1   
    50   45   52 1   
    51   46   47 1   
    52   46   48 1   
    53   53   54 1   
    54   53   57 1   
    55   54   55 1   
    56   54   58 1   
    57   54   59 1   
    58   55   56 2   
    59   55   60 1   
    60   60   61 1   
    61   60   68 1   
    62   61   62 1   
    63   61   64 1   
    64   61   69 1   
    65   62   63 2   
    66   62   72 1   
    67   64   65 1   
    68   64   70 1   
    69   64   71 1   
    70   65   66 1   
    71   65   67 1   
    72   72   73 1   
    73   72   76 1   
    74   73   74 1   
    75   73   77 1   
    76   73   78 1   
    77   74   75 2   
    78   74   79 1   
    79   79   80 1   
    80   79   86 1   
    81   80   81 1   
    82   80   83 1   
    83   80   87 1   
    84   81   82 2   
    85   81   93 1   
    86   83   84 1   
    87   83   85 1   
    88   83   88 1   
    89   84   90 1   
    90   84   91 1   
    91   84   92 1   
    92   85   89 1   
    93   93   94 1   
    94   93  101 1   
    95   94   95 1   
    96   94   97 1   
    97   94  102 1   
    98   95   96 2   
    99   95  112 1   
   100   97   98 1   
   101   97   99 1   
   102   97  103 1   
   103   98  100 1   
   104   98  104 1   
   105   98  105 1   
   106   99  106 1   
   107   99  107 1   
   108   99  108 1   
   109  100  109 1   
   110  100  110 1   
   111  100  111 1   
   112  112  113 1   
   113  112  119 1   
   114  113  114 1   
   115  113  116 1   
   116  113  120 1   
   117  114  115 2   
   118  114  126 1   
   119  116  117 1   
   120  116  118 1   
   121  116  121 1   
   122  117  123 1   
   123  117  124 1   
   124  117  125 1   
   125  118  122 1   
   126  126  127 1   
   127  126  133 1   
   128  127  128 1   
   129  127  130 1   
   130  127  134 1   
   131  128  129 2   
   132  128  140 1   
   133  130  131 1   
   134  130  132 1   
   135  130  135 1   
   136  131  137 1   
   137  131  138 1   
   138  131  139 1   
   139  132  136 1   
   140  140  141 1   
   141  140  149 1   
   142  141  142 1   
   143  141  144 1   
   144  141  150 1   
   145  142  143 2   
   146  142  162 1   
   147  144  145 1   
   148  144  151 1   
   149  144  152 1   
   150  145  146 1   
   151  145  153 1   
   152  145  154 1   
   153  146  147 1   
   154  146  155 1   
   155  146  156 1   
   156  147  148 1   
   157  147  157 1   
   158  147  158 1   
   159  148  159 1   
   160  148  160 1   
   161  148  161 1   
   162  162  163 1   
   163  162  171 1   
   164  163  164 1   
   165  163  166 1   
   166  163  172 1   
   167  164  165 2   
   168  164  177 1   
   169  166  167 1   
   170  166  173 1   
   171  166  174 1   
   172  167  168 1   
   173  167  175 1   
   174  167  176 1   
   175  168  169 1   
   176  168  170 1   
   177  177  178 1   
   178  177  182 1   
   179  178  179 1   
   180  178  180 1   
   181  178  181 1   
   182  184  185 1   
   183  184  186 1   
   184  187  188 1   
   185  187  189 1   
@<TRIPOS>SUBSTRUCTURE
     1 MOL         1 TEMP              0 ****  ****    0 ROOT
