@<TRIPOS>MOLECULE
MOL
  189   185     1     0     0
SMALL
resp


@<TRIPOS>ATOM
      1 C1          0.2140    3.1100    5.5990 c3        1 MOL     -0.310963
      2 C2         -0.1780    2.6760    4.1430 c         1 MOL      0.708339
      3 O1          0.5140    3.0670    3.1940 o         1 MOL     -0.651100
      4 H1          1.2250    3.5180    5.5970 hc        1 MOL      0.083480
      5 H2         -0.4830    3.8700    5.9520 hc        1 MOL      0.083480
      6 H3          0.1740    2.2450    6.2600 hc        1 MOL      0.083480
      7 N1         -1.3300    1.9510    4.0410 n         1 MOL     -0.590963
      8 C3         -1.9790    1.7280    2.7580 c3        1 MOL      0.099197
      9 C4         -2.5020    3.0620    2.2260 c         1 MOL      0.469844
     10 O2         -3.5270    3.6190    2.6490 o         1 MOL     -0.512776
     11 C5         -3.0790    0.6100    2.9400 c3        1 MOL     -0.123142
     12 C6         -3.7570    0.1230    1.6160 c         1 MOL      0.700775
     13 O3         -3.1880    0.3970    0.5100 o         1 MOL     -0.713284
     14 O4         -4.8660   -0.4430    1.5860 o         1 MOL     -0.713284
     15 H4         -1.8440    1.7950    4.8930 hn        1 MOL      0.329435
     16 H5         -1.2740    1.2820    2.0530 h1        1 MOL     -0.001978
     17 H6         -3.8900    1.0750    3.4890 hc        1 MOL      0.043949
     18 H7         -2.7880   -0.1610    3.6540 hc        1 MOL      0.043949
     19 N2         -1.7070    3.6120    1.2650 n         1 MOL     -0.140262
     20 C7         -1.9350    4.9960    0.7870 c3        1 MOL     -0.092913
     21 C8         -3.2320    5.3060    0.0510 c         1 MOL      0.450442
     22 O5         -3.9930    6.1930    0.3680 o         1 MOL     -0.536096
     23 C9         -0.7790    5.3680   -0.1180 c3        1 MOL     -0.077221
     24 C10         0.6400    5.5000    0.4530 c3        1 MOL      0.272219
     25 C11         1.5080    6.4180   -0.4170 c3        1 MOL     -0.270224
     26 C12         2.9760    6.2960    0.1170 c3        1 MOL      0.194721
     27 N3          3.8370    6.8910   -0.8870 n4        1 MOL     -0.420728
     28 H8         -0.9350    3.1070    0.8460 hn        1 MOL      0.233714
     29 H9         -1.8350    5.7080    1.6080 h1        1 MOL      0.066481
     30 H10        -1.1560    6.2860   -0.5740 hc        1 MOL      0.000054
     31 H11        -0.7550    4.7000   -0.9840 hc        1 MOL      0.000054
     32 H12         1.1300    4.5310    0.5220 hc        1 MOL     -0.014572
     33 H13         0.6040    5.8230    1.5010 hc        1 MOL     -0.014572
     34 H14         1.1550    7.4180   -0.1590 hc        1 MOL      0.076670
     35 H15         1.3230    6.0680   -1.4310 hc        1 MOL      0.076670
     36 H16         3.1730    5.2260    0.1720 hx        1 MOL      0.059343
     37 H17         3.1020    6.7570    1.0940 hx        1 MOL      0.059343
     38 H18         4.7900    6.5970   -0.7060 hn        1 MOL      0.332248
     39 H19         3.6020    6.4840   -1.7760 hn        1 MOL      0.332248
     40 H20         3.8250    7.8980   -0.9280 hn        1 MOL      0.332248
     41 N4         -3.5430    4.4340   -0.8890 n         1 MOL     -0.212917
     42 C13        -4.7110    4.3170   -1.7920 c3        1 MOL      0.067126
     43 C14        -5.8970    3.5310   -1.1160 c         1 MOL      0.455192
     44 O6         -7.0570    3.8180   -1.3190 o         1 MOL     -0.547577
     45 C15        -4.1690    3.7960   -3.1370 c3        1 MOL     -0.250478
     46 C16        -3.3530    2.5040   -2.9870 c         1 MOL      0.747718
     47 O7         -3.3370    1.8080   -1.9460 o         1 MOL     -0.689613
     48 O8         -2.5830    2.1180   -3.9380 o         1 MOL     -0.689613
     49 H21        -2.8860    3.6660   -0.8230 hn        1 MOL      0.155997
     50 H22        -5.0590    5.3370   -1.9630 h1        1 MOL      0.071071
     51 H23        -3.4300    4.5410   -3.4240 hc        1 MOL      0.065931
     52 H24        -4.9020    3.6700   -3.9260 hc        1 MOL      0.065931
     53 N5         -5.5980    2.5880   -0.2630 n         1 MOL     -0.089006
     54 C17        -6.6120    1.9020    0.4810 c3        1 MOL     -0.148693
     55 C18        -7.2200    0.7590   -0.3130 c         1 MOL      0.586210
     56 O9         -8.4130    0.6150   -0.2120 o         1 MOL     -0.570236
     57 H25        -4.6940    2.1620   -0.3450 hn        1 MOL      0.064945
     58 H26        -7.4070    2.5900    0.7610 h1        1 MOL      0.099441
     59 H27        -6.3690    1.5170    1.4780 h1        1 MOL      0.099441
     60 N6         -6.4000    0.0310   -1.0630 n         1 MOL     -0.330984
     61 C19        -6.8830   -1.0850   -1.8120 c3        1 MOL     -0.001036
     62 C20        -7.0810   -2.4060   -1.0840 c         1 MOL      0.432131
     63 O10        -7.5010   -3.4230   -1.6890 o         1 MOL     -0.528507
     64 C21        -6.1570   -1.3230   -3.1830 c3        1 MOL     -0.189884
     65 C22        -4.6890   -1.4120   -2.9110 c         1 MOL      0.722548
     66 O11        -3.8980   -0.6080   -3.4970 o         1 MOL     -0.734404
     67 O12        -4.1820   -2.0700   -1.9850 o         1 MOL     -0.734404
     68 H28        -5.4260    0.2440   -0.8920 hn        1 MOL      0.268345
     69 H29        -7.8740   -0.8700   -2.2130 h1        1 MOL      0.116715
     70 H30        -6.4050   -0.5220   -3.8830 hc        1 MOL      0.072010
     71 H31        -6.5230   -2.2560   -3.6160 hc        1 MOL      0.072010
     72 N7         -6.8270   -2.4220    0.2430 n         1 MOL     -0.418600
     73 C23        -6.8470   -3.7450    0.9650 c3        1 MOL      0.004460
     74 C24        -5.4440   -4.3390    0.9730 c         1 MOL      0.486726
     75 O13        -5.3410   -5.4570    1.5310 o         1 MOL     -0.581482
     76 H32        -6.3550   -1.6380    0.6600 hn        1 MOL      0.330254
     77 H33        -7.5320   -4.4710    0.5300 h1        1 MOL      0.083722
     78 H34        -7.1440   -3.6580    2.0050 h1        1 MOL      0.083722
     79 N8         -4.4120   -3.7340    0.3690 n         1 MOL     -0.209476
     80 C25        -3.1100   -4.3350    0.4540 c3        1 MOL     -0.250897
     81 C26        -2.0080   -3.3210    0.5590 c         1 MOL      0.713227
     82 O14        -2.0000   -2.2170   -0.0270 o         1 MOL     -0.645174
     83 C27        -2.7640   -5.2090   -0.6980 c3        1 MOL      0.565726
     84 C28        -3.0920   -6.7730   -0.4980 c3        1 MOL     -0.435508
     85 O15        -3.5490   -4.7960   -1.8010 oh        1 MOL     -0.685385
     86 H35        -4.4380   -2.8440   -0.0920 hn        1 MOL      0.247354
     87 H36        -2.9860   -4.9960    1.3210 h1        1 MOL      0.098037
     88 H37        -1.7120   -5.1730   -0.9470 h1        1 MOL     -0.060562
     89 H38        -3.7640   -3.8610   -1.7020 ho        1 MOL      0.436973
     90 H39        -4.1790   -6.8660   -0.5460 hc        1 MOL      0.109599
     91 H40        -2.6150   -7.2410   -1.3670 hc        1 MOL      0.109599
     92 H41        -2.6640   -7.2420    0.3840 hc        1 MOL      0.109599
     93 N9         -1.0520   -3.6960    1.3860 n         1 MOL     -0.650900
     94 C29         0.2380   -2.9770    1.6520 c3        1 MOL      0.123777
     95 C30         1.3010   -3.6820    0.7570 c         1 MOL      0.451459
     96 O16         1.6010   -4.8860    0.9440 o         1 MOL     -0.559040
     97 C31         0.4760   -2.8160    3.1190 c3        1 MOL      0.027914
     98 C32        -0.4330   -1.6580    3.6280 c3        1 MOL      0.097948
     99 C33         1.9710   -2.6230    3.4560 c3        1 MOL     -0.175516
    100 C34        -0.3360   -1.4910    5.2090 c3        1 MOL     -0.405504
    101 H42        -1.1870   -4.5930    1.8530 hn        1 MOL      0.318442
    102 H43         0.0960   -1.9920    1.2040 h1        1 MOL      0.066102
    103 H44         0.0970   -3.6460    3.7190 hc        1 MOL      0.028490
    104 H45        -1.4280   -1.7060    3.1690 hc        1 MOL      0.038072
    105 H46         0.0820   -0.8370    3.1280 hc        1 MOL      0.038072
    106 H47         2.2530   -2.5830    4.5100 hc        1 MOL      0.034374
    107 H48         2.5160   -3.4940    3.1000 hc        1 MOL      0.034374
    108 H49         2.3480   -1.7210    2.9850 hc        1 MOL      0.034374
    109 H50        -0.2060   -2.4770    5.6450 hc        1 MOL      0.101214
    110 H51         0.5030   -0.8610    5.5130 hc        1 MOL      0.101214
    111 H52        -1.2790   -1.0670    5.5740 hc        1 MOL      0.101214
    112 N10         1.9620   -2.8600   -0.0100 n         1 MOL     -0.064722
    113 C35         3.2140   -3.1830   -0.7830 c3        1 MOL     -0.135554
    114 C36         4.5260   -2.8460   -0.0170 c         1 MOL      0.421742
    115 O17         4.4490   -2.1280    0.9960 o         1 MOL     -0.366860
    116 C37         3.1250   -2.3620   -1.9930 c3        1 MOL      0.251110
    117 C38         1.9080   -2.6270   -2.8730 c3        1 MOL     -0.325118
    118 O18         3.0610   -0.9550   -1.7070 oh        1 MOL     -0.606411
    119 H53         1.7290   -1.8810   -0.0900 hn        1 MOL      0.033193
    120 H54         3.2150   -4.2090   -1.1300 h1        1 MOL      0.097233
    121 H55         4.0380   -2.4880   -2.5770 h1        1 MOL      0.007726
    122 H56         2.1310   -0.7160   -1.7210 ho        1 MOL      0.405358
    123 H57         1.8100   -3.6610   -3.2270 hc        1 MOL      0.093244
    124 H58         0.9820   -2.2300   -2.4600 hc        1 MOL      0.093244
    125 H59         2.0420   -2.0660   -3.7960 hc        1 MOL      0.093244
    126 N11         5.7260   -3.2260   -0.5000 n         1 MOL     -0.358745
    127 C39         7.0170   -2.8320    0.0890 c3        1 MOL      0.002850
    128 C40         7.1640   -1.4120    0.5640 c         1 MOL      0.158015
    129 O19         7.7050   -1.1180    1.6500 o         1 MOL     -0.467372
    130 C41         8.0950   -3.2230   -0.9730 c3        1 MOL      0.222662
    131 C42         8.3230   -4.7250   -1.1010 c3        1 MOL     -0.496851
    132 O20         7.8250   -2.6810   -2.2190 oh        1 MOL     -0.621497
    133 H60         5.7960   -3.9330   -1.2230 hn        1 MOL      0.292136
    134 H61         7.0860   -3.4120    1.0070 h1        1 MOL      0.134572
    135 H62         9.0630   -2.8520   -0.6240 h1        1 MOL      0.049653
    136 H63         8.5870   -2.8560   -2.7640 ho        1 MOL      0.422531
    137 H64         9.1270   -4.8730   -1.8200 hc        1 MOL      0.149064
    138 H65         8.5030   -5.1330   -0.0970 hc        1 MOL      0.149064
    139 H66         7.3520   -5.0650   -1.4640 hc        1 MOL      0.149064
    140 N12         6.7520   -0.4590   -0.2420 n         1 MOL     -0.006350
    141 C43         6.9870    1.0200   -0.0600 c3        1 MOL     -0.060028
    142 C44         5.9560    1.5570    0.9890 c         1 MOL      0.423818
    143 O21         6.1960    2.4820    1.7110 o         1 MOL     -0.524572
    144 C45         7.0160    1.7640   -1.4250 c3        1 MOL     -0.114561
    145 C46         8.3420    1.4810   -2.1680 c3        1 MOL      0.028411
    146 C47         8.3450    2.1490   -3.5530 c3        1 MOL      0.027254
    147 C48         9.4380    1.5270   -4.3420 c3        1 MOL      0.026007
    148 N13         9.3690    2.0460   -5.7700 n4        1 MOL     -0.239743
    149 H67         6.3480   -0.8870   -1.0670 hn        1 MOL      0.220564
    150 H68         7.9530    1.1160    0.4250 h1        1 MOL      0.119341
    151 H69         6.9720    2.8510   -1.3400 hc        1 MOL      0.049310
    152 H70         6.1560    1.4270   -1.9890 hc        1 MOL      0.049310
    153 H71         8.4860    0.4200   -2.3460 hc        1 MOL      0.010870
    154 H72         9.1810    1.8780   -1.5940 hc        1 MOL      0.010870
    155 H73         8.4120    3.2230   -3.3810 hc        1 MOL      0.013668
    156 H74         7.3870    2.0280   -4.0530 hc        1 MOL      0.013668
    157 H75         9.2060    0.4560   -4.3410 hx        1 MOL      0.072199
    158 H76        10.4290    1.7140   -3.9260 hx        1 MOL      0.072199
    159 H77         8.4870    1.8970   -6.2230 hn        1 MOL      0.236245
    160 H78         9.6310    3.0160   -5.7890 hn        1 MOL      0.236245
    161 H79        10.0240    1.5430   -6.3500 hn        1 MOL      0.236245
    162 N14         4.7600    0.9140    1.1150 n         1 MOL     -0.248979
    163 C49         3.7470    1.1300    2.1280 c3        1 MOL     -0.081655
    164 C50         3.9950    0.3890    3.4200 c         1 MOL      0.539106
    165 O22         3.6070    0.8670    4.4700 o         1 MOL     -0.565656
    166 C51         2.4150    0.7470    1.5870 c3        1 MOL      0.231062
    167 C52         1.9870    1.3740    0.2010 c3        1 MOL      0.092999
    168 C53         0.6190    0.8260   -0.3290 c         1 MOL      0.572508
    169 O23         0.5330   -0.4250   -0.6030 o         1 MOL     -0.656165
    170 O24        -0.3230    1.6300   -0.5840 o         1 MOL     -0.656165
    171 H80         4.4990    0.1760    0.4710 hn        1 MOL      0.127335
    172 H81         3.6660    2.2140    2.2580 h1        1 MOL      0.063506
    173 H82         1.6300    1.0510    2.2810 hc        1 MOL     -0.027604
    174 H83         2.3290   -0.3390    1.4930 hc        1 MOL     -0.027604
    175 H84         2.7430    1.1710   -0.5570 hc        1 MOL     -0.080300
    176 H85         1.9180    2.4600    0.3030 hc        1 MOL     -0.080300
    177 N15         4.7500   -0.7060    3.3460 n         1 MOL     -0.106856
    178 C54         5.5210   -1.1950    4.5240 c3        1 MOL     -0.267213
    179 H86         6.5790   -1.2480    4.2680 h1        1 MOL      0.102626
    180 H87         5.3840   -0.5080    5.3590 h1        1 MOL      0.102626
    181 H88         5.1650   -2.1860    4.8050 h1        1 MOL      0.102626
    182 H89         4.9490   -1.1060    2.4410 hn        1 MOL      0.185634
    183 Ca1        -2.0030   -0.3000   -1.7630 Ca        1 MOL      1.815825
    184 O25        -1.3730   -2.6630   -3.0000 oh        1 MOL     -0.876154
    185 H90        -2.1120   -3.2660   -3.0450 ho        1 MOL      0.409924
    186 H91        -0.8810   -2.8150   -3.8080 ho        1 MOL      0.409924
    187 O26        -0.4720    0.3570   -3.9150 oh        1 MOL     -0.876154
    188 H92         0.2480    0.0460   -4.4550 ho        1 MOL      0.409924
    189 H93        -0.7930    1.1410   -4.3720 ho        1 MOL      0.409924
@<TRIPOS>BOND
     1    1    2 1   
     2    1    4 1   
     3    1    5 1   
     4    1    6 1   
     5    2    3 2   
     6    2    7 1   
     7    7    8 1   
     8    7   15 1   
     9    8    9 1   
    10    8   11 1   
    11    8   16 1   
    12    9   10 2   
    13    9   19 1   
    14   11   12 1   
    15   11   17 1   
    16   11   18 1   
    17   12   13 1   
    18   12   14 1   
    19   19   20 1   
    20   19   28 1   
    21   20   21 1   
    22   20   23 1   
    23   20   29 1   
    24   21   22 2   
    25   21   41 1   
    26   23   24 1   
    27   23   30 1   
    28   23   31 1   
    29   24   25 1   
    30   24   32 1   
    31   24   33 1   
    32   25   26 1   
    33   25   34 1   
    34   25   35 1   
    35   26   27 1   
    36   26   36 1   
    37   26   37 1   
    38   27   38 1   
    39   27   39 1   
    40   27   40 1   
    41   41   42 1   
    42   41   49 1   
    43   42   43 1   
    44   42   45 1   
    45   42   50 1   
    46   43   44 2   
    47   43   53 1   
    48   45   46 1   
    49   45   51 1   
    50   45   52 1   
    51   46   47 1   
    52   46   48 1   
    53   53   54 1   
    54   53   57 1   
    55   54   55 1   
    56   54   58 1   
    57   54   59 1   
    58   55   56 2   
    59   55   60 1   
    60   60   61 1   
    61   60   68 1   
    62   61   62 1   
    63   61   64 1   
    64   61   69 1   
    65   62   63 2   
    66   62   72 1   
    67   64   65 1   
    68   64   70 1   
    69   64   71 1   
    70   65   66 1   
    71   65   67 1   
    72   72   73 1   
    73   72   76 1   
    74   73   74 1   
    75   73   77 1   
    76   73   78 1   
    77   74   75 2   
    78   74   79 1   
    79   79   80 1   
    80   79   86 1   
    81   80   81 1   
    82   80   83 1   
    83   80   87 1   
    84   81   82 2   
    85   81   93 1   
    86   83   84 1   
    87   83   85 1   
    88   83   88 1   
    89   84   90 1   
    90   84   91 1   
    91   84   92 1   
    92   85   89 1   
    93   93   94 1   
    94   93  101 1   
    95   94   95 1   
    96   94   97 1   
    97   94  102 1   
    98   95   96 2   
    99   95  112 1   
   100   97   98 1   
   101   97   99 1   
   102   97  103 1   
   103   98  100 1   
   104   98  104 1   
   105   98  105 1   
   106   99  106 1   
   107   99  107 1   
   108   99  108 1   
   109  100  109 1   
   110  100  110 1   
   111  100  111 1   
   112  112  113 1   
   113  112  119 1   
   114  113  114 1   
   115  113  116 1   
   116  113  120 1   
   117  114  115 2   
   118  114  126 1   
   119  116  117 1   
   120  116  118 1   
   121  116  121 1   
   122  117  123 1   
   123  117  124 1   
   124  117  125 1   
   125  118  122 1   
   126  126  127 1   
   127  126  133 1   
   128  127  128 1   
   129  127  130 1   
   130  127  134 1   
   131  128  129 2   
   132  128  140 1   
   133  130  131 1   
   134  130  132 1   
   135  130  135 1   
   136  131  137 1   
   137  131  138 1   
   138  131  139 1   
   139  132  136 1   
   140  140  141 1   
   141  140  149 1   
   142  141  142 1   
   143  141  144 1   
   144  141  150 1   
   145  142  143 2   
   146  142  162 1   
   147  144  145 1   
   148  144  151 1   
   149  144  152 1   
   150  145  146 1   
   151  145  153 1   
   152  145  154 1   
   153  146  147 1   
   154  146  155 1   
   155  146  156 1   
   156  147  148 1   
   157  147  157 1   
   158  147  158 1   
   159  148  159 1   
   160  148  160 1   
   161  148  161 1   
   162  162  163 1   
   163  162  171 1   
   164  163  164 1   
   165  163  166 1   
   166  163  172 1   
   167  164  165 2   
   168  164  177 1   
   169  166  167 1   
   170  166  173 1   
   171  166  174 1   
   172  167  168 1   
   173  167  175 1   
   174  167  176 1   
   175  168  169 1   
   176  168  170 1   
   177  177  178 1   
   178  177  182 1   
   179  178  179 1   
   180  178  180 1   
   181  178  181 1   
   182  184  185 1   
   183  184  186 1   
   184  187  188 1   
   185  187  189 1   
@<TRIPOS>SUBSTRUCTURE
     1 MOL         1 TEMP              0 ****  ****    0 ROOT
