@<TRIPOS>MOLECULE
MOL
  179   176     1     0     0
SMALL
resp


@<TRIPOS>ATOM
      1 C1          2.0860    3.3260    4.6120 c3        1 MOL     -0.381467
      2 C2          1.2060    3.1050    3.3610 c         1 MOL      0.676979
      3 O1          1.7510    3.0780    2.2390 o         1 MOL     -0.579076
      4 H1          1.6080    4.0530    5.2680 hc        1 MOL      0.097347
      5 H2          2.2070    2.3820    5.1430 hc        1 MOL      0.097347
      6 H3          3.0630    3.7010    4.3070 hc        1 MOL      0.097347
      7 N1         -0.1400    3.0410    3.5210 n         1 MOL     -0.687640
      8 C3         -1.0240    2.9000    2.3640 c3        1 MOL      0.143321
      9 C4         -1.6020    4.2650    1.9840 c         1 MOL      0.383118
     10 O2         -2.4310    4.9100    2.6470 o         1 MOL     -0.526527
     11 C5         -2.1590    1.9050    2.6670 c3        1 MOL     -0.125996
     12 C6         -2.8720    1.5580    1.3590 c         1 MOL      0.880527
     13 O3         -4.1280    1.5580    1.4190 o         1 MOL     -0.780914
     14 O4         -2.2450    1.2230    0.3580 o         1 MOL     -0.780914
     15 H4         -0.5160    3.1690    4.4450 hn        1 MOL      0.377031
     16 H5         -0.5310    2.4810    1.4940 h1        1 MOL      0.022964
     17 H6         -2.8240    2.3750    3.3870 hc        1 MOL      0.038059
     18 H7         -1.6460    1.0050    3.0130 hc        1 MOL      0.038059
     19 N2         -1.3630    4.6420    0.7460 n         1 MOL     -0.223660
     20 C7         -1.7170    5.9690    0.1960 c3        1 MOL      0.089623
     21 C8         -2.8090    5.8420   -0.8840 c         1 MOL      0.350642
     22 O5         -3.6290    6.7510   -0.9820 o         1 MOL     -0.535947
     23 C9         -0.4370    6.7480   -0.3120 c3        1 MOL     -0.133734
     24 C10         0.5610    7.0350    0.7880 c3        1 MOL      0.089829
     25 C11         1.8600    7.7690    0.3170 c3        1 MOL     -0.000235
     26 C12         2.5800    8.2430    1.6310 c3        1 MOL     -0.003453
     27 N3          3.7850    7.4210    1.8840 n4        1 MOL     -0.341607
     28 H8         -0.8100    4.0200    0.1700 hn        1 MOL      0.271684
     29 H9         -2.1720    6.6130    0.9460 h1        1 MOL      0.085719
     30 H10        -0.7750    7.7060   -0.7060 hc        1 MOL      0.037048
     31 H11         0.0600    6.1380   -1.0630 hc        1 MOL      0.037048
     32 H12         0.8520    6.0920    1.2390 hc        1 MOL     -0.002890
     33 H13         0.0240    7.6040    1.5470 hc        1 MOL     -0.002890
     34 H14         1.7500    8.5700   -0.4170 hc        1 MOL      0.034644
     35 H15         2.4920    7.0340   -0.1770 hc        1 MOL      0.034644
     36 H16         1.8310    8.2050    2.4140 hx        1 MOL      0.084843
     37 H17         2.9440    9.2700    1.5800 hx        1 MOL      0.084843
     38 H18         4.1980    7.6980    2.7610 hn        1 MOL      0.328854
     39 H19         3.5100    6.4580    1.9900 hn        1 MOL      0.328854
     40 H20         4.4610    7.4760    1.1360 hn        1 MOL      0.328854
     41 N4         -2.8940    4.7920   -1.6300 n         1 MOL     -0.167099
     42 C13        -3.8840    4.5150   -2.6580 c3        1 MOL     -0.050831
     43 C14        -5.2240    4.0010   -2.0160 c         1 MOL      0.414853
     44 O6         -6.3010    4.0360   -2.6660 o         1 MOL     -0.536276
     45 C15        -3.3570    3.4750   -3.6340 c3        1 MOL     -0.128757
     46 C16        -2.7750    2.2720   -2.9440 c         1 MOL      0.733175
     47 O7         -1.7240    2.3410   -2.3690 o         1 MOL     -0.743676
     48 O8         -3.3950    1.1980   -2.9980 o         1 MOL     -0.743676
     49 H21        -2.1210    4.1430   -1.5910 hn        1 MOL      0.152017
     50 H22        -4.1270    5.3990   -3.2350 h1        1 MOL      0.100604
     51 H23        -2.5750    3.9500   -4.2300 hc        1 MOL      0.046656
     52 H24        -4.1140    3.2290   -4.3690 hc        1 MOL      0.046656
     53 N5         -5.1240    3.5230   -0.7700 n         1 MOL     -0.090605
     54 C17        -6.2520    3.1970    0.0270 c3        1 MOL     -0.289801
     55 C18        -6.7170    1.7250   -0.1350 c         1 MOL      0.580683
     56 O9         -7.7280    1.3600    0.4820 o         1 MOL     -0.576674
     57 H25        -4.1940    3.4720   -0.3680 hn        1 MOL      0.208715
     58 H26        -7.0550    3.8920   -0.2130 h1        1 MOL      0.136364
     59 H27        -6.0060    3.4310    1.0610 h1        1 MOL      0.136364
     60 N6         -5.9920    0.8820   -0.8500 n         1 MOL     -0.261301
     61 C19        -6.4580   -0.5220   -1.1030 c3        1 MOL     -0.039288
     62 C20        -6.3240   -1.5290    0.0650 c         1 MOL      0.417513
     63 O10        -6.9970   -2.5180    0.0750 o         1 MOL     -0.531549
     64 C21        -5.7860   -1.0120   -2.4330 c3        1 MOL     -0.318073
     65 C22        -4.5330   -1.8440   -2.3100 c         1 MOL      0.756598
     66 N7         -4.4800   -2.7760   -3.1350 n         1 MOL     -0.712978
     67 O11        -3.7030   -1.5480   -1.5030 o         1 MOL     -0.712564
     68 H28        -5.1210    1.1600   -1.2760 hn        1 MOL      0.184222
     69 H29        -7.5250   -0.5000   -1.3540 h1        1 MOL      0.117488
     70 H30        -5.4330   -0.1370   -2.9810 hc        1 MOL      0.119110
     71 H31        -6.5710   -1.5060   -3.0000 hc        1 MOL      0.119110
     72 H32        -5.1960   -2.9120   -3.8440 hn        1 MOL      0.339111
     73 H33        -3.6580   -3.3600   -3.1560 hn        1 MOL      0.339111
     74 N8         -5.5880   -1.1840    1.1040 n         1 MOL     -0.126973
     75 C23        -5.3910   -1.8940    2.3550 c3        1 MOL     -0.249548
     76 C24        -4.1530   -2.8030    2.4700 c         1 MOL      0.454391
     77 O12        -3.6440   -3.0600    3.5890 o         1 MOL     -0.571175
     78 H34        -5.1290   -0.2850    1.1160 hn        1 MOL      0.256727
     79 H35        -6.3230   -2.3750    2.6530 h1        1 MOL      0.130141
     80 H36        -5.3000   -1.0910    3.0770 h1        1 MOL      0.130141
     81 N9         -3.5870   -3.1570    1.3510 n         1 MOL     -0.247517
     82 C25        -2.2630   -3.8660    1.3690 c3        1 MOL      0.184874
     83 C26        -1.1570   -2.8600    1.0370 c         1 MOL      0.763811
     84 O13        -1.3960   -1.8480    0.2990 o         1 MOL     -0.803140
     85 C27        -2.2410   -4.9630    0.3290 c3        1 MOL     -0.127703
     86 C28        -3.4590   -5.8820    0.4610 ca        1 MOL     -0.027308
     87 C29        -4.6230   -5.6550   -0.2710 ca        1 MOL     -0.111421
     88 C30        -3.4350   -6.8770    1.4830 ca        1 MOL     -0.111421
     89 C31        -5.7140   -6.5400   -0.0970 ca        1 MOL     -0.302886
     90 C32        -4.5110   -7.7620    1.6380 ca        1 MOL     -0.302886
     91 C33        -5.6550   -7.5600    0.8260 ca        1 MOL      0.405243
     92 O14        -6.7010   -8.4460    0.8210 oh        1 MOL     -0.514297
     93 H37        -4.0920   -2.9550    0.4920 hn        1 MOL      0.284299
     94 H38        -2.0300   -4.2600    2.3600 h1        1 MOL      0.024232
     95 H39        -1.3150   -5.5300    0.4290 hc        1 MOL      0.042207
     96 H40        -2.3010   -4.5490   -0.6760 hc        1 MOL      0.042207
     97 H41        -4.6340   -4.8730   -1.0170 ha        1 MOL      0.119610
     98 H42        -2.4960   -6.9910    2.0090 ha        1 MOL      0.119610
     99 H43        -6.5560   -6.4240   -0.7650 ha        1 MOL      0.161770
    100 H44        -4.4790   -8.5520    2.3860 ha        1 MOL      0.161770
    101 H45        -6.7710   -8.9160    1.6510 ho        1 MOL      0.367868
    102 N10         0.0850   -3.1730    1.5610 n         1 MOL     -0.621764
    103 C34         1.3940   -2.5600    1.2260 c3        1 MOL     -0.084897
    104 C35         2.4160   -3.5380    0.6750 c         1 MOL      0.544500
    105 O15         2.6170   -4.5240    1.3450 o         1 MOL     -0.577659
    106 C36         2.0050   -1.6380    2.3400 c3        1 MOL      0.434412
    107 C37         2.6560   -2.4710    3.4890 c3        1 MOL     -0.111670
    108 C38         0.9680   -0.6350    2.8310 c3        1 MOL     -0.272852
    109 C39         3.2590   -1.5410    4.5690 c3        1 MOL     -0.176924
    110 H46         0.1460   -3.9120    2.2530 hn        1 MOL      0.315217
    111 H47         1.2120   -1.8860    0.3930 h1        1 MOL      0.102796
    112 H48         2.8030   -1.0650    1.8710 hc        1 MOL     -0.149001
    113 H49         3.4800   -3.1040    3.1640 hc        1 MOL      0.049349
    114 H50         1.8050   -3.0380    3.8700 hc        1 MOL      0.049349
    115 H51         0.1260   -1.1220    3.3170 hc        1 MOL      0.079004
    116 H52         1.5180    0.1100    3.4160 hc        1 MOL      0.079004
    117 H53         0.6500    0.0300    2.0330 hc        1 MOL      0.079004
    118 H54         2.3640   -1.2120    5.0980 hc        1 MOL      0.038974
    119 H55         3.8730   -2.1220    5.2600 hc        1 MOL      0.038974
    120 H56         3.8720   -0.7610    4.1170 hc        1 MOL      0.038974
    121 N11         3.1740   -3.1850   -0.3170 n         1 MOL     -0.417716
    122 C40         4.3740   -3.7930   -0.7880 c3        1 MOL      0.246666
    123 C41         5.6940   -3.1150   -0.2960 c         1 MOL      0.431852
    124 O16         5.6520   -2.1410    0.5290 o         1 MOL     -0.409972
    125 C42         4.3160   -3.9360   -2.2670 c3        1 MOL     -0.197602
    126 O17         4.7620   -2.6840   -2.7870 oh        1 MOL     -0.493138
    127 H57         2.9020   -2.3080   -0.7260 hn        1 MOL      0.254562
    128 H58         4.3450   -4.7590   -0.2920 h1        1 MOL      0.027604
    129 H59         3.3000   -4.1320   -2.6100 h1        1 MOL      0.111918
    130 H60         4.9070   -4.8080   -2.5390 h1        1 MOL      0.111918
    131 H61         4.6910   -2.6820   -3.7410 ho        1 MOL      0.393361
    132 N12         6.8030   -3.7960   -0.6310 n         1 MOL     -0.492339
    133 C43         8.1540   -3.2700   -0.2730 c3        1 MOL      0.216112
    134 C44         8.4260   -1.9270   -0.8810 c         1 MOL      0.399588
    135 O18         9.0820   -1.0860   -0.1780 o         1 MOL     -0.520128
    136 C45         9.1000   -4.3870   -0.6590 c3        1 MOL     -0.397463
    137 H62         6.7120   -4.5610   -1.2770 hn        1 MOL      0.298089
    138 H63         8.2220   -3.1850    0.8120 h1        1 MOL      0.099247
    139 H64         9.0450   -5.1330    0.1430 hc        1 MOL      0.114977
    140 H65         8.8240   -4.7860   -1.6300 hc        1 MOL      0.114977
    141 H66        10.1380   -4.0890   -0.8050 hc        1 MOL      0.114977
    142 N13         7.8580   -1.6490   -2.0700 n         1 MOL     -0.266606
    143 C46         8.0200   -0.3810   -2.7720 c3        1 MOL     -0.001939
    144 C47         7.3020    0.7520   -1.9090 c         1 MOL      0.340335
    145 O19         7.7260    1.9290   -1.9080 o         1 MOL     -0.501367
    146 C48         7.4280   -0.5370   -4.1950 c3        1 MOL     -0.209235
    147 H67         7.1870   -2.3150   -2.4150 hn        1 MOL      0.176441
    148 H68         9.0980   -0.1910   -2.7890 h1        1 MOL      0.125095
    149 H69         7.5110    0.3610   -4.7960 hc        1 MOL      0.068824
    150 H70         7.9910   -1.3170   -4.7100 hc        1 MOL      0.068824
    151 H71         6.3960   -0.8840   -4.1850 hc        1 MOL      0.068824
    152 N14         6.2190    0.4030   -1.1330 n         1 MOL     -0.030267
    153 C49         5.3710    1.3620   -0.3500 c3        1 MOL     -0.399463
    154 C50         6.0420    1.4960    0.9850 c         1 MOL      0.547304
    155 O20         5.9090    2.5730    1.5620 o         1 MOL     -0.583606
    156 C51         3.9880    0.8000   -0.2640 c3        1 MOL      0.124804
    157 C52         3.2300    0.9270   -1.6480 c3        1 MOL      0.102331
    158 C53         1.8640    0.3760   -1.3820 c         1 MOL      0.511454
    159 O21         1.6530   -0.8640   -1.4710 o         1 MOL     -0.700001
    160 O22         0.9550    1.1260   -1.0420 o         1 MOL     -0.700001
    161 H72         5.9160   -0.5560   -1.2170 hn        1 MOL      0.187325
    162 H73         5.3370    2.3630   -0.7760 h1        1 MOL      0.171970
    163 H74         3.4900    1.3510    0.5280 hc        1 MOL      0.070616
    164 H75         4.0270   -0.2740   -0.0920 hc        1 MOL      0.070616
    165 H76         3.7370    0.4040   -2.4540 hc        1 MOL     -0.054129
    166 H77         3.2440    1.9750   -1.9370 hc        1 MOL     -0.054129
    167 N15         6.6100    0.4370    1.6430 n         1 MOL     -0.068646
    168 C54         7.2810    0.6620    2.8820 c3        1 MOL     -0.356956
    169 H78         6.8060    1.4910    3.4060 h1        1 MOL      0.124133
    170 H79         7.2220   -0.2370    3.4960 h1        1 MOL      0.124133
    171 H80         8.3260    0.9040    2.6910 h1        1 MOL      0.124133
    172 H81         6.5940   -0.4610    1.1820 hn        1 MOL      0.109391
    173 Ca1        -1.2980   -0.0780   -1.5940 Ca        1 MOL      1.826340
    174 O23        -1.0010   -2.3740   -2.8890 oh        1 MOL     -0.827793
    175 H82        -1.5150   -3.1760   -2.9310 ho        1 MOL      0.411663
    176 H83        -0.1770   -2.5830   -3.3120 ho        1 MOL      0.411663
    177 O24        -0.4110    0.2130   -4.1520 oh        1 MOL     -0.827793
    178 H84        -0.4450    1.1100   -4.4830 ho        1 MOL      0.411663
    179 H85         0.4030   -0.1340   -4.5150 ho        1 MOL      0.411663
@<TRIPOS>BOND
     1    1    2 1   
     2    1    4 1   
     3    1    5 1   
     4    1    6 1   
     5    2    3 2   
     6    2    7 1   
     7    7    8 1   
     8    7   15 1   
     9    8    9 1   
    10    8   11 1   
    11    8   16 1   
    12    9   10 2   
    13    9   19 1   
    14   11   12 1   
    15   11   17 1   
    16   11   18 1   
    17   12   13 1   
    18   12   14 1   
    19   19   20 1   
    20   19   28 1   
    21   20   21 1   
    22   20   23 1   
    23   20   29 1   
    24   21   22 2   
    25   21   41 1   
    26   23   24 1   
    27   23   30 1   
    28   23   31 1   
    29   24   25 1   
    30   24   32 1   
    31   24   33 1   
    32   25   26 1   
    33   25   34 1   
    34   25   35 1   
    35   26   27 1   
    36   26   36 1   
    37   26   37 1   
    38   27   38 1   
    39   27   39 1   
    40   27   40 1   
    41   41   42 1   
    42   41   49 1   
    43   42   43 1   
    44   42   45 1   
    45   42   50 1   
    46   43   44 2   
    47   43   53 1   
    48   45   46 1   
    49   45   51 1   
    50   45   52 1   
    51   46   47 1   
    52   46   48 1   
    53   53   54 1   
    54   53   57 1   
    55   54   55 1   
    56   54   58 1   
    57   54   59 1   
    58   55   56 2   
    59   55   60 1   
    60   60   61 1   
    61   60   68 1   
    62   61   62 1   
    63   61   64 1   
    64   61   69 1   
    65   62   63 2   
    66   62   74 1   
    67   64   65 1   
    68   64   70 1   
    69   64   71 1   
    70   65   66 1   
    71   65   67 2   
    72   66   72 1   
    73   66   73 1   
    74   74   75 1   
    75   74   78 1   
    76   75   76 1   
    77   75   79 1   
    78   75   80 1   
    79   76   77 2   
    80   76   81 1   
    81   81   82 1   
    82   81   93 1   
    83   82   83 1   
    84   82   85 1   
    85   82   94 1   
    86   83   84 2   
    87   83  102 1   
    88   85   86 1   
    89   85   95 1   
    90   85   96 1   
    91   86   87 ar  
    92   86   88 ar  
    93   87   89 ar  
    94   87   97 1   
    95   88   90 ar  
    96   88   98 1   
    97   89   91 ar  
    98   89   99 1   
    99   90   91 ar  
   100   90  100 1   
   101   91   92 1   
   102   92  101 1   
   103  102  103 1   
   104  102  110 1   
   105  103  104 1   
   106  103  106 1   
   107  103  111 1   
   108  104  105 2   
   109  104  121 1   
   110  106  107 1   
   111  106  108 1   
   112  106  112 1   
   113  107  109 1   
   114  107  113 1   
   115  107  114 1   
   116  108  115 1   
   117  108  116 1   
   118  108  117 1   
   119  109  118 1   
   120  109  119 1   
   121  109  120 1   
   122  121  122 1   
   123  121  127 1   
   124  122  123 1   
   125  122  125 1   
   126  122  128 1   
   127  123  124 2   
   128  123  132 1   
   129  125  126 1   
   130  125  129 1   
   131  125  130 1   
   132  126  131 1   
   133  132  133 1   
   134  132  137 1   
   135  133  134 1   
   136  133  136 1   
   137  133  138 1   
   138  134  135 2   
   139  134  142 1   
   140  136  139 1   
   141  136  140 1   
   142  136  141 1   
   143  142  143 1   
   144  142  147 1   
   145  143  144 1   
   146  143  146 1   
   147  143  148 1   
   148  144  145 2   
   149  144  152 1   
   150  146  149 1   
   151  146  150 1   
   152  146  151 1   
   153  152  153 1   
   154  152  161 1   
   155  153  154 1   
   156  153  156 1   
   157  153  162 1   
   158  154  155 2   
   159  154  167 1   
   160  156  157 1   
   161  156  163 1   
   162  156  164 1   
   163  157  158 1   
   164  157  165 1   
   165  157  166 1   
   166  158  159 1   
   167  158  160 1   
   168  167  168 1   
   169  167  172 1   
   170  168  169 1   
   171  168  170 1   
   172  168  171 1   
   173  174  175 1   
   174  174  176 1   
   175  177  178 1   
   176  177  179 1   
@<TRIPOS>SUBSTRUCTURE
     1 MOL         1 TEMP              0 ****  ****    0 ROOT
