@<TRIPOS>MOLECULE
MOL
  189   185     1     0     0
SMALL
resp


@<TRIPOS>ATOM
      1 C1         -0.4020    2.9780    5.9470 c3        1 MOL     -0.391285
      2 C2         -0.6520    2.5230    4.5020 c         1 MOL      0.879600
      3 O1          0.2590    2.4780    3.7060 o         1 MOL     -0.666150
      4 H1         -1.0710    2.4400    6.6180 hc        1 MOL      0.091320
      5 H2          0.6320    2.7690    6.2210 hc        1 MOL      0.091320
      6 H3         -0.5910    4.0490    6.0300 hc        1 MOL      0.091320
      7 N1         -1.9340    2.2170    4.1380 n         1 MOL     -0.733036
      8 C3         -2.3210    2.0750    2.7370 c3        1 MOL      0.219158
      9 C4         -2.6310    3.4540    2.0780 c         1 MOL      0.393640
     10 O2         -3.3460    4.3070    2.5790 o         1 MOL     -0.552941
     11 C5         -3.6240    1.2310    2.7360 c3        1 MOL     -0.268757
     12 C6         -4.1150    0.8550    1.3170 c         1 MOL      0.929209
     13 O3         -5.2640    0.3770    1.1820 o         1 MOL     -0.772063
     14 O4         -3.3350    0.8990    0.3970 o         1 MOL     -0.772063
     15 H4         -2.6410    2.2210    4.8580 hn        1 MOL      0.360748
     16 H5         -1.5830    1.6150    2.0860 h1        1 MOL      0.008657
     17 H6         -4.4420    1.6900    3.2760 hc        1 MOL      0.064965
     18 H7         -3.4090    0.2400    3.1190 hc        1 MOL      0.064965
     19 N2         -1.9600    3.6080    0.9440 n         1 MOL     -0.167364
     20 C7         -1.8280    4.8290    0.2090 c3        1 MOL      0.032735
     21 C8         -2.4960    4.8160   -1.1340 c         1 MOL      0.417477
     22 O5         -2.3180    5.8010   -1.8860 o         1 MOL     -0.542353
     23 C9         -0.3430    5.0940    0.0570 c3        1 MOL      0.116618
     24 C10         0.3500    5.4050    1.3370 c3        1 MOL     -0.099290
     25 C11         0.1920    6.8160    1.8980 c3        1 MOL     -0.127236
     26 C12         0.9730    6.8300    3.2330 c3        1 MOL      0.128457
     27 N3          1.0960    8.2310    3.6900 n4        1 MOL     -0.312121
     28 H8         -1.4750    2.7940    0.5990 hn        1 MOL      0.185464
     29 H9         -2.2940    5.7140    0.6300 h1        1 MOL      0.063756
     30 H10        -0.2160    5.9470   -0.6040 hc        1 MOL     -0.001245
     31 H11         0.0760    4.3000   -0.5480 hc        1 MOL     -0.001245
     32 H12         1.4120    5.1790    1.2610 hc        1 MOL      0.041246
     33 H13         0.1710    4.6870    2.1350 hc        1 MOL      0.041246
     34 H14        -0.8720    7.0530    1.9340 hc        1 MOL      0.042956
     35 H15         0.6250    7.5570    1.2210 hc        1 MOL      0.042956
     36 H16         2.0010    6.5640    2.9700 hx        1 MOL      0.071470
     37 H17         0.5960    6.1000    3.9490 hx        1 MOL      0.071470
     38 H18         1.7170    8.4350    4.4600 hn        1 MOL      0.307286
     39 H19         1.4540    8.7640    2.9150 hn        1 MOL      0.307286
     40 H20         0.1960    8.6140    3.9380 hn        1 MOL      0.307286
     41 N4         -3.1260    3.7100   -1.6050 n         1 MOL     -0.209377
     42 C13        -4.0290    3.6550   -2.7930 c3        1 MOL     -0.152835
     43 C14        -5.3460    2.8180   -2.6510 c         1 MOL      0.519008
     44 O6         -5.9320    2.3460   -3.6490 o         1 MOL     -0.463407
     45 C15        -3.1740    3.2950   -4.1130 c3        1 MOL     -0.104807
     46 C16        -2.3740    2.0400   -3.9290 c         1 MOL      0.806468
     47 O7         -2.7790    1.2140   -3.0930 o         1 MOL     -0.738146
     48 O8         -1.3840    1.8450   -4.7220 o         1 MOL     -0.738146
     49 H21        -3.1480    2.8360   -1.0990 hn        1 MOL      0.112129
     50 H22        -4.3020    4.6860   -3.0110 h1        1 MOL      0.113723
     51 H23        -2.5560    4.1800   -4.2680 hc        1 MOL      0.037703
     52 H24        -3.7900    3.1980   -5.0120 hc        1 MOL      0.037703
     53 N5         -5.9580    2.7400   -1.4500 n         1 MOL     -0.389458
     54 C17        -7.3470    2.2820   -1.2650 c3        1 MOL     -0.031580
     55 C18        -7.6880    0.7530   -1.5650 c         1 MOL      0.453936
     56 O9         -8.7330    0.3900   -2.1600 o         1 MOL     -0.556066
     57 H25        -5.4960    3.0450   -0.6030 hn        1 MOL      0.256521
     58 H26        -7.9430    2.9770   -1.8530 h1        1 MOL      0.073807
     59 H27        -7.7150    2.4140   -0.2510 h1        1 MOL      0.073807
     60 N6         -6.7940   -0.2100   -1.2750 n         1 MOL     -0.368732
     61 C19        -6.9360   -1.6090   -1.6640 c3        1 MOL      0.232522
     62 C20        -6.8780   -2.6350   -0.4600 c         1 MOL      0.323268
     63 O10        -7.1360   -3.8160   -0.6640 o         1 MOL     -0.503005
     64 C21        -6.0350   -2.0900   -2.8300 c3        1 MOL     -0.265988
     65 C22        -4.5620   -2.1070   -2.4730 c         1 MOL      0.763135
     66 O11        -3.6360   -1.8040   -3.2490 o         1 MOL     -0.718208
     67 O12        -4.1770   -2.2370   -1.3160 o         1 MOL     -0.718208
     68 H28        -5.8700    0.0710   -0.9640 hn        1 MOL      0.248640
     69 H29        -7.9570   -1.8110   -1.9920 h1        1 MOL      0.075072
     70 H30        -6.1230   -1.4240   -3.6900 hc        1 MOL      0.078034
     71 H31        -6.4180   -3.0700   -3.0880 hc        1 MOL      0.078034
     72 N7         -6.5560   -2.1390    0.7560 n         1 MOL     -0.259227
     73 C23        -6.6530   -3.0410    1.9510 c3        1 MOL     -0.209568
     74 C24        -5.4140   -4.0330    2.1430 c         1 MOL      0.507628
     75 O13        -5.3280   -4.7820    3.1340 o         1 MOL     -0.575492
     76 H32        -6.1900   -1.2020    0.7850 hn        1 MOL      0.253209
     77 H33        -7.5580   -3.6360    1.9010 h1        1 MOL      0.119835
     78 H34        -6.6120   -2.4020    2.8440 h1        1 MOL      0.119835
     79 N8         -4.3950   -3.8780    1.2570 n         1 MOL     -0.051806
     80 C25        -3.0170   -4.4800    1.3600 c3        1 MOL     -0.368135
     81 C26        -1.8540   -3.4240    1.3540 c         1 MOL      0.814706
     82 O14        -2.0570   -2.3480    0.8370 o         1 MOL     -0.714215
     83 C27        -2.7940   -5.5420    0.3140 c3        1 MOL      0.520688
     84 C28        -3.7640   -6.6850    0.6220 c3        1 MOL     -0.321385
     85 O15        -2.9990   -4.9720   -0.9740 oh        1 MOL     -0.729961
     86 H35        -4.6010   -3.3370    0.4400 hn        1 MOL      0.099667
     87 H36        -2.8890   -5.0310    2.2910 h1        1 MOL      0.109393
     88 H37        -1.8080   -5.9800    0.4200 h1        1 MOL     -0.016490
     89 H38        -3.4400   -4.1120   -1.0040 ho        1 MOL      0.496219
     90 H39        -4.7980   -6.3510    0.4520 hc        1 MOL      0.077866
     91 H40        -3.6750   -7.5740   -0.0050 hc        1 MOL      0.077866
     92 H41        -3.5470   -7.0880    1.6070 hc        1 MOL      0.077866
     93 N9         -0.7070   -3.7720    1.8580 n         1 MOL     -0.712529
     94 C29         0.4880   -2.9340    1.7900 c3        1 MOL      0.319811
     95 C30         1.5190   -3.6020    0.8820 c         1 MOL      0.456951
     96 O16         1.7420   -4.8230    1.0440 o         1 MOL     -0.541812
     97 C31         0.9620   -2.5830    3.2600 c3        1 MOL     -0.030169
     98 C32         0.1000   -1.4170    3.7480 c3        1 MOL      0.066117
     99 C33         2.4490   -2.1860    3.3740 c3        1 MOL     -0.248596
    100 C34         0.3100   -1.1220    5.2260 c3        1 MOL     -0.099913
    101 H42        -0.5840   -4.6210    2.3830 hn        1 MOL      0.326923
    102 H43         0.2040   -1.9990    1.3070 h1        1 MOL     -0.043374
    103 H44         0.7610   -3.4880    3.8370 hc        1 MOL      0.037475
    104 H45        -0.9620   -1.6650    3.6470 hc        1 MOL      0.027316
    105 H46         0.2880   -0.5350    3.1360 hc        1 MOL      0.027316
    106 H47         3.0600   -2.8600    2.7860 hc        1 MOL      0.040587
    107 H48         2.6120   -1.2000    2.9210 hc        1 MOL      0.040587
    108 H49         2.6690   -2.2360    4.4360 hc        1 MOL      0.040587
    109 H50         1.2760   -0.6720    5.4480 hc        1 MOL      0.021308
    110 H51        -0.4580   -0.4350    5.5660 hc        1 MOL      0.021308
    111 H52         0.1660   -2.0160    5.8420 hc        1 MOL      0.021308
    112 N10         2.1550   -2.7780    0.0110 n         1 MOL     -0.269811
    113 C35         3.4040   -3.1280   -0.6790 c3        1 MOL      0.069838
    114 C36         4.6690   -2.8000    0.0710 c         1 MOL      0.450267
    115 O17         4.6790   -2.0260    1.0090 o         1 MOL     -0.414627
    116 C37         3.5080   -2.4220   -2.0720 c3        1 MOL      0.067153
    117 C38         2.3150   -2.5130   -2.9870 c3        1 MOL     -0.350180
    118 O18         3.9620   -1.1180   -1.8390 oh        1 MOL     -0.470971
    119 H53         1.6780   -1.9460   -0.3080 hn        1 MOL      0.263212
    120 H54         3.5070   -4.1980   -0.8000 h1        1 MOL      0.033967
    121 H55         4.3410   -2.9190   -2.5920 h1        1 MOL      0.031262
    122 H56         3.6410   -0.5990   -2.5860 ho        1 MOL      0.415045
    123 H57         2.5470   -2.1410   -3.9840 hc        1 MOL      0.110699
    124 H58         1.8400   -3.4910   -3.0200 hc        1 MOL      0.110699
    125 H59         1.4940   -1.8760   -2.6390 hc        1 MOL      0.110699
    126 N11         5.8410   -3.3200   -0.3840 n         1 MOL     -0.269687
    127 C39         7.1720   -2.9640    0.0570 c3        1 MOL     -0.342481
    128 C40         7.6300   -1.5080   -0.0660 c         1 MOL      0.544836
    129 O19         8.5830   -1.0600    0.5850 o         1 MOL     -0.532069
    130 C41         8.1840   -3.9420   -0.5170 c3        1 MOL      0.398208
    131 C42         8.0150   -5.3770   -0.1380 c3        1 MOL     -0.283683
    132 O20         7.9380   -3.9440   -1.8960 oh        1 MOL     -0.631909
    133 H60         5.6710   -3.8310   -1.2420 hn        1 MOL      0.268071
    134 H61         7.1390   -3.1260    1.1380 h1        1 MOL      0.172269
    135 H62         9.2180   -3.6150   -0.3570 h1        1 MOL      0.019591
    136 H63         8.2230   -3.1540   -2.3640 ho        1 MOL      0.387376
    137 H64         6.9740   -5.6820   -0.2930 hc        1 MOL      0.086845
    138 H65         8.6740   -6.0040   -0.7480 hc        1 MOL      0.086845
    139 H66         8.3090   -5.5020    0.9030 hc        1 MOL      0.086845
    140 N12         6.8530   -0.7440   -0.8250 n         1 MOL     -0.395589
    141 C43         7.0760    0.7390   -0.9570 c3        1 MOL     -0.003602
    142 C44         6.0520    1.4620    0.0570 c         1 MOL      0.348827
    143 O21         6.4680    2.4010    0.6700 o         1 MOL     -0.515096
    144 C45         6.7320    1.1540   -2.3490 c3        1 MOL      0.045453
    145 C46         6.8650    2.6640   -2.6570 c3        1 MOL     -0.170608
    146 C47         6.6110    2.9430   -4.2000 c3        1 MOL     -0.005818
    147 C48         7.6440    2.3670   -5.1480 c3        1 MOL     -0.187915
    148 N13         8.9470    3.1840   -5.0790 n4        1 MOL     -0.147727
    149 H67         6.0520   -1.1810   -1.2470 hn        1 MOL      0.147728
    150 H68         8.0860    1.0020   -0.6720 h1        1 MOL      0.123584
    151 H69         5.6900    0.9600   -2.6180 hc        1 MOL      0.012220
    152 H70         7.3440    0.5860   -3.0420 hc        1 MOL      0.012220
    153 H71         7.8630    2.9900   -2.3530 hc        1 MOL      0.060915
    154 H72         6.1040    3.1970   -2.0870 hc        1 MOL      0.060915
    155 H73         6.6150    4.0110   -4.4170 hc        1 MOL      0.072852
    156 H74         5.6090    2.6000   -4.4520 hc        1 MOL      0.072852
    157 H75         7.1750    2.5900   -6.0980 hx        1 MOL      0.143344
    158 H76         7.8390    1.3330   -4.8480 hx        1 MOL      0.143344
    159 H77         8.8610    4.1920   -5.1490 hn        1 MOL      0.256783
    160 H78         9.4140    2.9800   -4.2020 hn        1 MOL      0.256783
    161 H79         9.6170    2.8670   -5.7660 hn        1 MOL      0.256783
    162 N14         4.8260    1.0260    0.2180 n         1 MOL     -0.042873
    163 C49         3.9330    1.4740    1.2270 c3        1 MOL     -0.362993
    164 C50         4.4950    1.1820    2.6170 c         1 MOL      0.506735
    165 O22         4.2170    1.8960    3.6190 o         1 MOL     -0.550680
    166 C51         2.6010    0.8190    1.0490 c3        1 MOL      0.075745
    167 C52         1.9430    1.3120   -0.2830 c3        1 MOL     -0.148187
    168 C53         0.5550    0.7090   -0.5090 c         1 MOL      0.538492
    169 O23        -0.4320    1.4320   -0.7890 o         1 MOL     -0.628559
    170 O24         0.3790   -0.5460   -0.4910 o         1 MOL     -0.628559
    171 H80         4.5490    0.2890   -0.4200 hn        1 MOL      0.178107
    172 H81         3.7920    2.5560    1.1110 h1        1 MOL      0.148806
    173 H82         1.9320    1.0200    1.8810 hc        1 MOL      0.120738
    174 H83         2.7900   -0.2540    0.9600 hc        1 MOL      0.120738
    175 H84         2.6530    1.2250   -1.1060 hc        1 MOL      0.023753
    176 H85         1.6660    2.3590   -0.1720 hc        1 MOL      0.023753
    177 N15         5.3450    0.1160    2.7960 n         1 MOL     -0.141232
    178 C54         5.8430   -0.2930    4.0470 c3        1 MOL     -0.343936
    179 H86         6.8990   -0.5480    3.9510 h1        1 MOL      0.120700
    180 H87         5.7290    0.5180    4.7660 h1        1 MOL      0.120700
    181 H88         5.2880   -1.1660    4.3910 h1        1 MOL      0.120700
    182 H89         5.5020   -0.4900    2.0100 hn        1 MOL      0.241503
    183 Ca1        -2.1240   -0.5980   -1.3470 Ca        1 MOL      1.798323
    184 O25        -0.7200   -0.4730   -3.8360 oh        1 MOL     -0.852346
    185 H90        -0.5410   -0.8880   -4.6790 ho        1 MOL      0.396413
    186 H91        -1.2070    0.3170   -4.0550 ho        1 MOL      0.396413
    187 O26        -1.1750   -2.9660   -2.1090 oh        1 MOL     -0.852346
    188 H92        -0.3780   -3.2630   -2.5520 ho        1 MOL      0.396413
    189 H93        -1.7830   -3.6930   -2.1990 ho        1 MOL      0.396413
@<TRIPOS>BOND
     1    1    2 1   
     2    1    4 1   
     3    1    5 1   
     4    1    6 1   
     5    2    3 2   
     6    2    7 1   
     7    7    8 1   
     8    7   15 1   
     9    8    9 1   
    10    8   11 1   
    11    8   16 1   
    12    9   10 2   
    13    9   19 1   
    14   11   12 1   
    15   11   17 1   
    16   11   18 1   
    17   12   13 1   
    18   12   14 1   
    19   19   20 1   
    20   19   28 1   
    21   20   21 1   
    22   20   23 1   
    23   20   29 1   
    24   21   22 2   
    25   21   41 1   
    26   23   24 1   
    27   23   30 1   
    28   23   31 1   
    29   24   25 1   
    30   24   32 1   
    31   24   33 1   
    32   25   26 1   
    33   25   34 1   
    34   25   35 1   
    35   26   27 1   
    36   26   36 1   
    37   26   37 1   
    38   27   38 1   
    39   27   39 1   
    40   27   40 1   
    41   41   42 1   
    42   41   49 1   
    43   42   43 1   
    44   42   45 1   
    45   42   50 1   
    46   43   44 2   
    47   43   53 1   
    48   45   46 1   
    49   45   51 1   
    50   45   52 1   
    51   46   47 1   
    52   46   48 1   
    53   53   54 1   
    54   53   57 1   
    55   54   55 1   
    56   54   58 1   
    57   54   59 1   
    58   55   56 2   
    59   55   60 1   
    60   60   61 1   
    61   60   68 1   
    62   61   62 1   
    63   61   64 1   
    64   61   69 1   
    65   62   63 2   
    66   62   72 1   
    67   64   65 1   
    68   64   70 1   
    69   64   71 1   
    70   65   66 1   
    71   65   67 1   
    72   72   73 1   
    73   72   76 1   
    74   73   74 1   
    75   73   77 1   
    76   73   78 1   
    77   74   75 2   
    78   74   79 1   
    79   79   80 1   
    80   79   86 1   
    81   80   81 1   
    82   80   83 1   
    83   80   87 1   
    84   81   82 2   
    85   81   93 1   
    86   83   84 1   
    87   83   85 1   
    88   83   88 1   
    89   84   90 1   
    90   84   91 1   
    91   84   92 1   
    92   85   89 1   
    93   93   94 1   
    94   93  101 1   
    95   94   95 1   
    96   94   97 1   
    97   94  102 1   
    98   95   96 2   
    99   95  112 1   
   100   97   98 1   
   101   97   99 1   
   102   97  103 1   
   103   98  100 1   
   104   98  104 1   
   105   98  105 1   
   106   99  106 1   
   107   99  107 1   
   108   99  108 1   
   109  100  109 1   
   110  100  110 1   
   111  100  111 1   
   112  112  113 1   
   113  112  119 1   
   114  113  114 1   
   115  113  116 1   
   116  113  120 1   
   117  114  115 2   
   118  114  126 1   
   119  116  117 1   
   120  116  118 1   
   121  116  121 1   
   122  117  123 1   
   123  117  124 1   
   124  117  125 1   
   125  118  122 1   
   126  126  127 1   
   127  126  133 1   
   128  127  128 1   
   129  127  130 1   
   130  127  134 1   
   131  128  129 2   
   132  128  140 1   
   133  130  131 1   
   134  130  132 1   
   135  130  135 1   
   136  131  137 1   
   137  131  138 1   
   138  131  139 1   
   139  132  136 1   
   140  140  141 1   
   141  140  149 1   
   142  141  142 1   
   143  141  144 1   
   144  141  150 1   
   145  142  143 2   
   146  142  162 1   
   147  144  145 1   
   148  144  151 1   
   149  144  152 1   
   150  145  146 1   
   151  145  153 1   
   152  145  154 1   
   153  146  147 1   
   154  146  155 1   
   155  146  156 1   
   156  147  148 1   
   157  147  157 1   
   158  147  158 1   
   159  148  159 1   
   160  148  160 1   
   161  148  161 1   
   162  162  163 1   
   163  162  171 1   
   164  163  164 1   
   165  163  166 1   
   166  163  172 1   
   167  164  165 2   
   168  164  177 1   
   169  166  167 1   
   170  166  173 1   
   171  166  174 1   
   172  167  168 1   
   173  167  175 1   
   174  167  176 1   
   175  168  169 1   
   176  168  170 1   
   177  177  178 1   
   178  177  182 1   
   179  178  179 1   
   180  178  180 1   
   181  178  181 1   
   182  184  185 1   
   183  184  186 1   
   184  187  188 1   
   185  187  189 1   
@<TRIPOS>SUBSTRUCTURE
     1 MOL         1 TEMP              0 ****  ****    0 ROOT
