@<TRIPOS>MOLECULE
MOL
  182   178     1     0     0
SMALL
resp


@<TRIPOS>ATOM
      1 C1          2.2540    2.7320    5.5100 c3        1 MOL     -0.191582
      2 C2          1.5260    2.5150    4.1690 c         1 MOL      0.647672
      3 O1          2.1950    2.1400    3.1760 o         1 MOL     -0.585484
      4 H1          3.3030    2.9580    5.3210 hc        1 MOL      0.056539
      5 H2          1.7940    3.5630    6.0440 hc        1 MOL      0.056539
      6 H3          2.1810    1.8260    6.1130 hc        1 MOL      0.056539
      7 N1          0.1550    2.6110    4.1330 n         1 MOL     -0.578916
      8 C3         -0.6250    2.2420    2.9320 c3        1 MOL     -0.011386
      9 C4         -0.6680    3.5030    2.0430 c         1 MOL      0.447090
     10 O2         -1.4500    4.5170    2.3080 o         1 MOL     -0.540717
     11 C5         -2.1230    1.8000    3.1360 c3        1 MOL     -0.045134
     12 C6         -2.7370    1.2960    1.8850 c         1 MOL      0.704788
     13 O3         -3.8720    0.8160    2.0630 o         1 MOL     -0.728325
     14 O4         -2.1240    1.3700    0.8030 o         1 MOL     -0.728325
     15 H4         -0.3230    2.6600    5.0160 hn        1 MOL      0.339579
     16 H5         -0.0460    1.4710    2.4270 h1        1 MOL      0.000026
     17 H6         -2.6970    2.6010    3.6120 hc        1 MOL      0.042148
     18 H7         -2.2290    1.0190    3.8910 hc        1 MOL      0.042148
     19 N2          0.2540    3.6710    1.1280 n         1 MOL     -0.036773
     20 C7          0.6710    4.9480    0.5730 c3        1 MOL     -0.224097
     21 C8         -0.4100    5.5320   -0.4140 c         1 MOL      0.485298
     22 O5         -0.3770    6.7740   -0.6890 o         1 MOL     -0.583388
     23 C9          1.9960    4.5960   -0.2300 c3        1 MOL      0.072716
     24 C10         2.5620    5.8980   -0.8600 c3        1 MOL     -0.104703
     25 C11         3.9840    5.7110   -1.2570 c3        1 MOL     -0.089131
     26 C12         4.7290    6.9470   -1.7550 c3        1 MOL     -0.121838
     27 N3          4.0130    7.7840   -2.7790 n4        1 MOL     -0.216971
     28 H8          0.7630    2.8620    0.7840 hn        1 MOL      0.171557
     29 H9          1.0190    5.6090    1.3600 h1        1 MOL      0.129202
     30 H10         1.6810    3.9350   -1.0450 hc        1 MOL      0.029337
     31 H11         2.7090    4.0520    0.3870 hc        1 MOL      0.029337
     32 H12         2.5430    6.5830   -0.0200 hc        1 MOL      0.042912
     33 H13         1.8430    6.2220   -1.6110 hc        1 MOL      0.042912
     34 H14         4.1390    4.8960   -1.9690 hc        1 MOL      0.092230
     35 H15         4.5120    5.4110   -0.3460 hc        1 MOL      0.092230
     36 H16         5.6860    6.6080   -2.1600 hx        1 MOL      0.124641
     37 H17         4.8600    7.5760   -0.8730 hx        1 MOL      0.124641
     38 H18         3.5400    7.1260   -3.3830 hn        1 MOL      0.295607
     39 H19         3.2710    8.3170   -2.3310 hn        1 MOL      0.295607
     40 H20         4.5250    8.4370   -3.3490 hn        1 MOL      0.295607
     41 N4         -1.3770    4.6840   -0.8110 n         1 MOL     -0.150821
     42 C13        -2.5440    5.1050   -1.5440 c3        1 MOL      0.097789
     43 C14        -3.9300    4.8520   -0.8070 c         1 MOL      0.397994
     44 O6         -4.9670    5.1920   -1.2870 o         1 MOL     -0.523840
     45 C15        -2.4910    4.5110   -2.9660 c3        1 MOL     -0.415281
     46 C16        -2.3320    3.0240   -3.1100 c         1 MOL      0.879842
     47 O7         -1.9640    2.5840   -4.2310 o         1 MOL     -0.744033
     48 O8         -2.3960    2.2880   -2.1330 o         1 MOL     -0.744033
     49 H21        -1.1420    3.6990   -0.7580 hn        1 MOL      0.171500
     50 H22        -2.4990    6.1950   -1.6330 h1        1 MOL      0.079950
     51 H23        -1.7020    4.9770   -3.5610 hc        1 MOL      0.098187
     52 H24        -3.4220    4.7490   -3.4790 hc        1 MOL      0.098187
     53 N5         -3.8630    4.1960    0.3680 n         1 MOL     -0.083650
     54 C17        -5.0060    3.8450    1.2330 c3        1 MOL     -0.161047
     55 C18        -5.8390    2.6490    0.6830 c         1 MOL      0.515925
     56 O9         -6.9320    2.4260    1.1670 o         1 MOL     -0.557409
     57 H25        -2.9110    3.9780    0.6340 hn        1 MOL     -0.012646
     58 H26        -5.6610    4.6880    1.4670 h1        1 MOL      0.116023
     59 H27        -4.4750    3.5240    2.1230 h1        1 MOL      0.116023
     60 N6         -5.3850    1.7430   -0.2280 n         1 MOL     -0.120890
     61 C19        -6.2760    0.8630   -0.9010 c3        1 MOL     -0.210798
     62 C20        -6.8090   -0.3410   -0.0460 c         1 MOL      0.505979
     63 O10        -7.8720   -0.8480   -0.3330 o         1 MOL     -0.582054
     64 C21        -5.6540    0.3760   -2.1730 c3        1 MOL      0.048320
     65 C22        -4.7380   -0.8770   -1.9130 c         1 MOL      0.273179
     66 N7         -5.0080   -1.9570   -2.5250 n         1 MOL     -0.565309
     67 O11        -3.7510   -0.8360   -1.1710 o         1 MOL     -0.545287
     68 H28        -4.4210    1.6870   -0.5010 hn        1 MOL      0.137413
     69 H29        -7.0600    1.5160   -1.2710 h1        1 MOL      0.118528
     70 H30        -4.9790    1.1280   -2.5980 hc        1 MOL      0.047612
     71 H31        -6.3800    0.2320   -2.9680 hc        1 MOL      0.047612
     72 H32        -5.8280   -2.0370   -3.1110 hn        1 MOL      0.326094
     73 H33        -4.3770   -2.7320   -2.4010 hn        1 MOL      0.326094
     74 N8         -6.1010   -0.7690    0.9450 n         1 MOL     -0.022516
     75 C23        -6.4670   -1.7670    1.8760 c3        1 MOL     -0.368538
     76 C24        -5.3340   -2.5720    2.3870 c         1 MOL      0.612060
     77 O12        -5.5160   -3.1440    3.4610 o         1 MOL     -0.566545
     78 H34        -5.2980   -0.2420    1.2440 hn        1 MOL      0.259472
     79 H35        -7.2390   -2.4040    1.4360 h1        1 MOL      0.139693
     80 H36        -6.8720   -1.2070    2.7120 h1        1 MOL      0.139693
     81 N9         -4.1860   -2.5390    1.6570 n         1 MOL     -0.270564
     82 C25        -3.0060   -3.4240    1.8870 c3        1 MOL     -0.032925
     83 C26        -1.6370   -2.7760    1.5500 c         1 MOL      0.638081
     84 O13        -1.4670   -1.7800    0.8000 o         1 MOL     -0.638783
     85 C27        -3.2050   -4.8380    1.3570 c3        1 MOL     -0.090327
     86 C28        -3.8170   -4.9000    0.0110 ca        1 MOL      0.060964
     87 C29        -2.9840   -4.9370   -1.1460 ca        1 MOL     -0.162575
     88 C30        -5.2040   -5.1670   -0.1430 ca        1 MOL     -0.162575
     89 C31        -3.4790   -5.0570   -2.4680 ca        1 MOL     -0.257900
     90 C32        -5.7190   -5.2760   -1.4730 ca        1 MOL     -0.257900
     91 C33        -4.8940   -5.3240   -2.6260 ca        1 MOL      0.303653
     92 O14        -5.4110   -5.7490   -3.8110 oh        1 MOL     -0.481235
     93 H37        -4.0980   -1.7650    1.0090 hn        1 MOL      0.211335
     94 H38        -3.0030   -3.4960    2.9720 h1        1 MOL      0.042195
     95 H39        -3.7820   -5.4820    2.0110 hc        1 MOL      0.050720
     96 H40        -2.2110   -5.2770    1.3710 hc        1 MOL      0.050720
     97 H41        -1.9320   -4.7170   -1.0500 ha        1 MOL      0.162315
     98 H42        -5.8260   -5.2550    0.7380 ha        1 MOL      0.162315
     99 H43        -2.7830   -5.1410   -3.2760 ha        1 MOL      0.148415
    100 H44        -6.7580   -5.5210   -1.6470 ha        1 MOL      0.148415
    101 H45        -4.8090   -5.9360   -4.5390 ho        1 MOL      0.364973
    102 N10        -0.6470   -3.3110    2.2280 n         1 MOL     -0.455096
    103 C34         0.7520   -2.8790    2.0940 c3        1 MOL     -0.020919
    104 C35         1.4200   -3.9180    1.1510 c         1 MOL      0.488236
    105 O15         1.2970   -5.0750    1.3180 o         1 MOL     -0.549866
    106 C36         1.3700   -2.7320    3.4950 c3        1 MOL      0.188214
    107 C37         0.7550   -1.5410    4.2960 c3        1 MOL     -0.090569
    108 C38         2.8580   -2.4540    3.4330 c3        1 MOL     -0.382341
    109 C39         1.0760   -1.6340    5.7980 c3        1 MOL     -0.029940
    110 H46        -0.7720   -4.1500    2.7930 hn        1 MOL      0.309450
    111 H47         0.7470   -1.8880    1.6180 h1        1 MOL      0.091917
    112 H48         1.0940   -3.6250    4.0630 hc        1 MOL     -0.006635
    113 H49        -0.3310   -1.5930    4.1880 hc        1 MOL      0.052017
    114 H50         1.1970   -0.6090    3.9340 hc        1 MOL      0.052017
    115 H51         3.3430   -3.1600    2.7630 hc        1 MOL      0.086073
    116 H52         2.9660   -1.5260    2.8770 hc        1 MOL      0.086073
    117 H53         3.3460   -2.5220    4.4100 hc        1 MOL      0.086073
    118 H54         0.7640   -2.5980    6.2000 hc        1 MOL      0.012376
    119 H55         2.1180   -1.4830    6.0830 hc        1 MOL      0.012376
    120 H56         0.4870   -0.8950    6.3190 hc        1 MOL      0.012376
    121 N11         2.0200   -3.4300    0.0610 n         1 MOL     -0.162649
    122 C40         2.9920   -4.2040   -0.7760 c3        1 MOL     -0.091388
    123 C41         4.4340   -3.6850   -0.6110 c         1 MOL      0.538369
    124 O16         4.6640   -2.7320    0.1570 o         1 MOL     -0.449613
    125 C42         2.6000   -4.1150   -2.2810 c3        1 MOL      0.275649
    126 O17         1.2770   -4.6820   -2.3930 oh        1 MOL     -0.710768
    127 H57         1.7420   -2.4930   -0.2060 hn        1 MOL      0.191286
    128 H58         2.9090   -5.2520   -0.5020 h1        1 MOL      0.094849
    129 H59         3.3420   -4.6560   -2.8580 h1        1 MOL      0.012759
    130 H60         2.5790   -3.0930   -2.6640 h1        1 MOL      0.012759
    131 H61         1.2310   -5.6310   -2.4600 ho        1 MOL      0.426962
    132 N12         5.3970   -4.3360   -1.2180 n         1 MOL     -0.636068
    133 C43         6.8000   -4.2120   -0.7370 c3        1 MOL      0.310518
    134 C44         7.3480   -2.8070   -1.0010 c         1 MOL      0.398024
    135 O18         7.9060   -2.2440   -0.0580 o         1 MOL     -0.508021
    136 C45         7.6610   -5.2660   -1.5520 c3        1 MOL     -0.473318
    137 H62         5.2350   -5.1850   -1.7510 hn        1 MOL      0.340727
    138 H63         6.9230   -4.4500    0.3190 h1        1 MOL      0.070965
    139 H64         8.7150   -5.0990   -1.3810 hc        1 MOL      0.132799
    140 H65         7.2740   -6.2590   -1.3470 hc        1 MOL      0.132799
    141 H66         7.5020   -5.0690   -2.6120 hc        1 MOL      0.132799
    142 N13         7.0210   -2.1410   -2.1260 n         1 MOL     -0.320206
    143 C46         7.4950   -0.7020   -2.3740 c3        1 MOL      0.067107
    144 C47         7.0310    0.3200   -1.3610 c         1 MOL      0.332130
    145 O19         7.6510    1.3910   -1.1250 o         1 MOL     -0.512306
    146 C48         7.0340   -0.3370   -3.8090 c3        1 MOL     -0.256833
    147 H67         6.4630   -2.6820   -2.7750 hn        1 MOL      0.227772
    148 H68         8.5820   -0.7010   -2.4050 h1        1 MOL      0.105727
    149 H69         5.9620   -0.1420   -3.7890 hc        1 MOL      0.080574
    150 H70         7.4980    0.5750   -4.1770 hc        1 MOL      0.080574
    151 H71         7.1960   -1.2160   -4.4380 hc        1 MOL      0.080574
    152 N14         5.9320    0.0580   -0.6710 n         1 MOL      0.014527
    153 C49         5.3180    0.9760    0.2530 c3        1 MOL     -0.148977
    154 C50         5.9900    0.8650    1.6240 c         1 MOL      0.394466
    155 O20         6.2780    1.8330    2.3070 o         1 MOL     -0.520942
    156 C51         3.8160    0.6230    0.3540 c3        1 MOL      0.026433
    157 C52         3.1210    0.6770   -0.9700 c3        1 MOL     -0.124660
    158 C53         1.6540    0.4030   -0.6880 c         1 MOL      0.715687
    159 O21         0.8780    1.4050   -0.4610 o         1 MOL     -0.672436
    160 O22         1.1340   -0.7280   -0.8010 o         1 MOL     -0.672436
    161 H72         5.5140   -0.8560   -0.7940 hn        1 MOL      0.091566
    162 H73         5.5070    1.9860   -0.1010 h1        1 MOL      0.095098
    163 H74         3.3880    1.4370    0.9410 hc        1 MOL      0.059516
    164 H75         3.6360   -0.3100    0.9070 hc        1 MOL      0.059516
    165 H76         3.4290   -0.1540   -1.6080 hc        1 MOL     -0.016427
    166 H77         3.1580    1.6140   -1.5230 hc        1 MOL     -0.016427
    167 N15         6.5810   -0.3070    1.8590 n         1 MOL     -0.017171
    168 C54         7.3630   -0.5780    3.0440 c3        1 MOL     -0.294028
    169 H78         8.4100   -0.7030    2.7660 h1        1 MOL      0.112450
    170 H79         7.2700    0.2550    3.7400 h1        1 MOL      0.112450
    171 H80         7.0030   -1.4900    3.5170 h1        1 MOL      0.112450
    172 H81         6.4300   -1.0330    1.1740 hn        1 MOL      0.097837
    173 Ca1        -1.2630    0.0700   -1.1220 Ca        1 MOL      1.716357
    174 O23        -0.8780   -2.3540   -2.1860 oh        1 MOL     -0.775815
    175 H82        -0.2290   -3.0320   -1.9980 ho        1 MOL      0.373049
    176 H83        -1.1030   -2.4660   -3.1070 ho        1 MOL      0.373049
    177 O24        -2.2070   -0.1170   -3.8660 oh        1 MOL     -0.775815
    178 H84        -2.3080   -0.4560   -4.7550 ho        1 MOL      0.373049
    179 H85        -2.5270    0.7830   -3.9190 ho        1 MOL      0.373049
    180 O25         0.3410    0.7520   -3.3610 oh        1 MOL     -0.775815
    181 H86        -0.0900    1.2190   -4.0810 ho        1 MOL      0.373049
    182 H87         0.8510    0.0690   -3.7990 ho        1 MOL      0.373049
@<TRIPOS>BOND
     1    1    2 1   
     2    1    4 1   
     3    1    5 1   
     4    1    6 1   
     5    2    3 2   
     6    2    7 1   
     7    7    8 1   
     8    7   15 1   
     9    8    9 1   
    10    8   11 1   
    11    8   16 1   
    12    9   10 2   
    13    9   19 1   
    14   11   12 1   
    15   11   17 1   
    16   11   18 1   
    17   12   13 1   
    18   12   14 1   
    19   19   20 1   
    20   19   28 1   
    21   20   21 1   
    22   20   23 1   
    23   20   29 1   
    24   21   22 2   
    25   21   41 1   
    26   23   24 1   
    27   23   30 1   
    28   23   31 1   
    29   24   25 1   
    30   24   32 1   
    31   24   33 1   
    32   25   26 1   
    33   25   34 1   
    34   25   35 1   
    35   26   27 1   
    36   26   36 1   
    37   26   37 1   
    38   27   38 1   
    39   27   39 1   
    40   27   40 1   
    41   41   42 1   
    42   41   49 1   
    43   42   43 1   
    44   42   45 1   
    45   42   50 1   
    46   43   44 2   
    47   43   53 1   
    48   45   46 1   
    49   45   51 1   
    50   45   52 1   
    51   46   47 1   
    52   46   48 1   
    53   53   54 1   
    54   53   57 1   
    55   54   55 1   
    56   54   58 1   
    57   54   59 1   
    58   55   56 2   
    59   55   60 1   
    60   60   61 1   
    61   60   68 1   
    62   61   62 1   
    63   61   64 1   
    64   61   69 1   
    65   62   63 2   
    66   62   74 1   
    67   64   65 1   
    68   64   70 1   
    69   64   71 1   
    70   65   66 1   
    71   65   67 2   
    72   66   72 1   
    73   66   73 1   
    74   74   75 1   
    75   74   78 1   
    76   75   76 1   
    77   75   79 1   
    78   75   80 1   
    79   76   77 2   
    80   76   81 1   
    81   81   82 1   
    82   81   93 1   
    83   82   83 1   
    84   82   85 1   
    85   82   94 1   
    86   83   84 2   
    87   83  102 1   
    88   85   86 1   
    89   85   95 1   
    90   85   96 1   
    91   86   87 ar  
    92   86   88 ar  
    93   87   89 ar  
    94   87   97 1   
    95   88   90 ar  
    96   88   98 1   
    97   89   91 ar  
    98   89   99 1   
    99   90   91 ar  
   100   90  100 1   
   101   91   92 1   
   102   92  101 1   
   103  102  103 1   
   104  102  110 1   
   105  103  104 1   
   106  103  106 1   
   107  103  111 1   
   108  104  105 2   
   109  104  121 1   
   110  106  107 1   
   111  106  108 1   
   112  106  112 1   
   113  107  109 1   
   114  107  113 1   
   115  107  114 1   
   116  108  115 1   
   117  108  116 1   
   118  108  117 1   
   119  109  118 1   
   120  109  119 1   
   121  109  120 1   
   122  121  122 1   
   123  121  127 1   
   124  122  123 1   
   125  122  125 1   
   126  122  128 1   
   127  123  124 2   
   128  123  132 1   
   129  125  126 1   
   130  125  129 1   
   131  125  130 1   
   132  126  131 1   
   133  132  133 1   
   134  132  137 1   
   135  133  134 1   
   136  133  136 1   
   137  133  138 1   
   138  134  135 2   
   139  134  142 1   
   140  136  139 1   
   141  136  140 1   
   142  136  141 1   
   143  142  143 1   
   144  142  147 1   
   145  143  144 1   
   146  143  146 1   
   147  143  148 1   
   148  144  145 2   
   149  144  152 1   
   150  146  149 1   
   151  146  150 1   
   152  146  151 1   
   153  152  153 1   
   154  152  161 1   
   155  153  154 1   
   156  153  156 1   
   157  153  162 1   
   158  154  155 2   
   159  154  167 1   
   160  156  157 1   
   161  156  163 1   
   162  156  164 1   
   163  157  158 1   
   164  157  165 1   
   165  157  166 1   
   166  158  159 1   
   167  158  160 1   
   168  167  168 1   
   169  167  172 1   
   170  168  169 1   
   171  168  170 1   
   172  168  171 1   
   173  174  175 1   
   174  174  176 1   
   175  177  178 1   
   176  177  179 1   
   177  180  181 1   
   178  180  182 1   
@<TRIPOS>SUBSTRUCTURE
     1 MOL         1 TEMP              0 ****  ****    0 ROOT
