@<TRIPOS>MOLECULE
MOL
  179   176     1     0     0
SMALL
resp


@<TRIPOS>ATOM
      1 C1          1.6970    3.6840    4.8880 c3        1 MOL     -0.432373
      2 C2          1.0760    3.4860    3.4970 c         1 MOL      0.712765
      3 O1          1.7270    3.6410    2.4940 o         1 MOL     -0.586215
      4 H1          2.7640    3.4690    4.8430 hc        1 MOL      0.109945
      5 H2          1.5480    4.7160    5.2100 hc        1 MOL      0.109945
      6 H3          1.2210    3.0090    5.5990 hc        1 MOL      0.109945
      7 N1         -0.2100    3.2170    3.4690 n         1 MOL     -0.612994
      8 C3         -0.9660    2.9260    2.2690 c3        1 MOL      0.050323
      9 C4         -1.5890    4.1330    1.6470 c         1 MOL      0.493849
     10 O2         -2.7380    4.5330    1.9880 o         1 MOL     -0.500465
     11 C5         -2.0640    1.9360    2.4570 c3        1 MOL      0.173817
     12 C6         -2.7340    1.4600    1.1730 c         1 MOL      0.598916
     13 O3         -2.0080    1.4130    0.1570 o         1 MOL     -0.695103
     14 O4         -3.9450    1.1240    1.1540 o         1 MOL     -0.695103
     15 H4         -0.6750    3.0820    4.3580 hn        1 MOL      0.328445
     16 H5         -0.2730    2.4730    1.5680 h1        1 MOL      0.081274
     17 H6         -2.8390    2.3270    3.1250 hc        1 MOL     -0.049647
     18 H7         -1.6310    1.0970    2.9960 hc        1 MOL     -0.049647
     19 N2         -0.8720    4.8030    0.6520 n         1 MOL     -0.386838
     20 C7         -1.4760    5.9790    0.0180 c3        1 MOL     -0.009652
     21 C8         -2.7220    5.6860   -0.7690 c         1 MOL      0.356716
     22 O5         -3.6660    6.5180   -0.7530 o         1 MOL     -0.537773
     23 C9         -0.4400    6.6490   -0.8850 c3        1 MOL     -0.138018
     24 C10         0.7460    7.1730   -0.1020 c3        1 MOL      0.149153
     25 C11         0.4940    8.5140    0.5690 c3        1 MOL     -0.283643
     26 C12         1.8910    8.8610    1.1860 c3        1 MOL      0.075686
     27 N3          1.8010   10.0960    2.0020 n4        1 MOL     -0.200757
     28 H8          0.1050    4.5960    0.4810 hn        1 MOL      0.313731
     29 H9         -1.6810    6.6360    0.8590 h1        1 MOL      0.084570
     30 H10        -0.8520    7.5420   -1.3440 hc        1 MOL      0.067900
     31 H11        -0.1140    5.9890   -1.6920 hc        1 MOL      0.067900
     32 H12         1.6080    7.2070   -0.7670 hc        1 MOL      0.013076
     33 H13         1.0460    6.3760    0.5910 hc        1 MOL      0.013076
     34 H14        -0.2980    8.3430    1.2900 hc        1 MOL      0.101984
     35 H15         0.3350    9.3060   -0.1620 hc        1 MOL      0.101984
     36 H16         2.5310    9.0720    0.3290 hx        1 MOL      0.073571
     37 H17         2.2430    8.0620    1.8360 hx        1 MOL      0.073571
     38 H18         1.0290   10.6440    1.6470 hn        1 MOL      0.284097
     39 H19         1.5300    9.7900    2.9240 hn        1 MOL      0.284097
     40 H20         2.6150   10.6760    2.0990 hn        1 MOL      0.284097
     41 N4         -2.8220    4.5340   -1.4390 n         1 MOL     -0.185499
     42 C13        -3.9470    4.2580   -2.3550 c3        1 MOL     -0.043906
     43 C14        -5.2800    3.7560   -1.6440 c         1 MOL      0.501475
     44 O6         -6.3260    3.8890   -2.2770 o         1 MOL     -0.528907
     45 C15        -3.5500    3.3380   -3.5360 c3        1 MOL     -0.271255
     46 C16        -2.6820    2.1760   -3.1530 c         1 MOL      0.813062
     47 O7         -3.3100    1.0900   -3.1430 o         1 MOL     -0.750250
     48 O8         -1.4620    2.2170   -2.8780 o         1 MOL     -0.750250
     49 H21        -2.0620    3.8720   -1.3970 hn        1 MOL      0.203795
     50 H22        -4.2370    5.2290   -2.7400 h1        1 MOL      0.109609
     51 H23        -3.0950    3.9290   -4.3250 hc        1 MOL      0.076097
     52 H24        -4.5030    3.0540   -3.9900 hc        1 MOL      0.076097
     53 N5         -5.1820    3.3160   -0.3680 n         1 MOL     -0.270487
     54 C17        -6.4000    2.8920    0.2690 c3        1 MOL     -0.100918
     55 C18        -6.9710    1.5340    0.0130 c         1 MOL      0.438607
     56 O9         -8.1570    1.2700    0.2400 o         1 MOL     -0.554212
     57 H25        -4.2860    3.1800    0.0910 hn        1 MOL      0.294589
     58 H26        -7.1720    3.6370    0.1030 h1        1 MOL      0.092630
     59 H27        -6.2660    3.0290    1.3390 h1        1 MOL      0.092630
     60 N6         -6.1460    0.5680   -0.5060 n         1 MOL     -0.066067
     61 C19        -6.4870   -0.8110   -0.8750 c3        1 MOL     -0.124395
     62 C20        -6.2290   -1.7220    0.3470 c         1 MOL      0.476560
     63 O10        -6.7710   -2.8230    0.3420 o         1 MOL     -0.518730
     64 C21        -5.9270   -1.1850   -2.2330 c3        1 MOL     -0.101317
     65 C22        -4.4880   -1.6890   -2.2320 c         1 MOL      0.635202
     66 N7         -4.2420   -2.5160   -3.2760 n         1 MOL     -0.845268
     67 O11        -3.7510   -1.5490   -1.2890 o         1 MOL     -0.478168
     68 H28        -5.2000    0.9200   -0.6260 hn        1 MOL      0.038473
     69 H29        -7.5740   -0.7670   -0.9580 h1        1 MOL      0.112210
     70 H30        -5.9340   -0.3150   -2.8970 hc        1 MOL      0.074232
     71 H31        -6.5990   -1.9340   -2.6430 hc        1 MOL      0.074232
     72 H32        -4.8680   -2.7860   -4.0170 hn        1 MOL      0.373484
     73 H33        -3.3740   -3.0440   -3.3070 hn        1 MOL      0.373484
     74 N8         -5.5010   -1.2690    1.3800 n         1 MOL     -0.298717
     75 C23        -5.4190   -2.1410    2.5830 c3        1 MOL     -0.166436
     76 C24        -4.2020   -3.0590    2.5300 c         1 MOL      0.487413
     77 O12        -3.9090   -3.6650    3.5010 o         1 MOL     -0.566008
     78 H34        -4.8500   -0.5070    1.2850 hn        1 MOL      0.251226
     79 H35        -6.3140   -2.7650    2.5810 h1        1 MOL      0.121783
     80 H36        -5.4660   -1.5170    3.4700 h1        1 MOL      0.121783
     81 N9         -3.3580   -3.1140    1.4610 n         1 MOL     -0.073555
     82 C25        -2.0240   -3.8620    1.3160 c3        1 MOL      0.145364
     83 C26        -0.8820   -2.9320    0.9030 c         1 MOL      0.182244
     84 O13        -1.1480   -1.9110    0.2710 o         1 MOL     -0.542806
     85 C27        -2.1760   -5.0160    0.2880 c3        1 MOL      0.064274
     86 C28        -3.2710   -6.0880    0.5110 ca        1 MOL     -0.142606
     87 C29        -4.5480   -5.8520    0.1270 ca        1 MOL      0.009792
     88 C30        -3.0050   -7.3340    1.0540 ca        1 MOL      0.009792
     89 C31        -5.5710   -6.8300    0.1940 ca        1 MOL     -0.370942
     90 C32        -3.9820   -8.3820    1.2580 ca        1 MOL     -0.370942
     91 C33        -5.2800   -8.1040    0.7550 ca        1 MOL      0.399429
     92 O14        -6.2800   -9.0400    0.6440 oh        1 MOL     -0.476394
     93 H37        -3.4710   -2.4740    0.6920 hn        1 MOL      0.143216
     94 H38        -1.8680   -4.3670    2.2650 h1        1 MOL      0.016410
     95 H39        -1.2320   -5.5400    0.1470 hc        1 MOL      0.003785
     96 H40        -2.3680   -4.4800   -0.6350 hc        1 MOL      0.003785
     97 H41        -4.7710   -4.8560   -0.2350 ha        1 MOL      0.065223
     98 H42        -2.0050   -7.6960    1.2560 ha        1 MOL      0.065223
     99 H43        -6.5570   -6.5920   -0.1750 ha        1 MOL      0.176716
    100 H44        -3.8190   -9.3220    1.7480 ha        1 MOL      0.176716
    101 H45        -5.9980   -9.8730    1.0350 ho        1 MOL      0.342781
    102 N10         0.3250   -3.2330    1.3810 n         1 MOL     -0.215470
    103 C34         1.6040   -2.6190    1.0630 c3        1 MOL     -0.077410
    104 C35         2.6380   -3.6990    0.6400 c         1 MOL      0.485166
    105 O15         2.6440   -4.7600    1.2270 o         1 MOL     -0.539073
    106 C36         2.1670   -1.5710    2.1160 c3        1 MOL      0.103597
    107 C37         2.6460   -2.2360    3.4560 c3        1 MOL     -0.056411
    108 C38         1.0770   -0.4440    2.3650 c3        1 MOL     -0.276000
    109 C39         2.9440   -1.2220    4.4980 c3        1 MOL     -0.125565
    110 H46         0.4830   -4.0270    1.9790 hn        1 MOL      0.242517
    111 H47         1.4120   -2.0860    0.1260 h1        1 MOL      0.224336
    112 H48         3.0740   -1.1110    1.7190 hc        1 MOL     -0.029440
    113 H49         3.5280   -2.8200    3.2210 hc        1 MOL      0.040962
    114 H50         1.8350   -2.8920    3.7940 hc        1 MOL      0.040962
    115 H51         1.6120    0.4630    2.6510 hc        1 MOL      0.103167
    116 H52         0.4590   -0.0950    1.5370 hc        1 MOL      0.103167
    117 H53         0.3850   -0.7760    3.1500 hc        1 MOL      0.103167
    118 H54         3.6980   -0.5250    4.1520 hc        1 MOL      0.025117
    119 H55         2.0520   -0.6310    4.6920 hc        1 MOL      0.025117
    120 H56         3.1770   -1.6980    5.4540 hc        1 MOL      0.025117
    121 N11         3.4810   -3.3420   -0.3500 n         1 MOL     -0.326875
    122 C40         4.7720   -3.9960   -0.6690 c3        1 MOL      0.237324
    123 C41         5.9160   -3.1820   -0.0060 c         1 MOL      0.371427
    124 O16         5.6610   -2.1080    0.5600 o         1 MOL     -0.326507
    125 C42         4.9750   -4.0380   -2.1860 c3        1 MOL     -0.488003
    126 O17         4.8460   -2.7360   -2.7140 oh        1 MOL     -0.228319
    127 H57         3.3660   -2.4010   -0.6900 hn        1 MOL      0.063659
    128 H58         4.8390   -4.9910   -0.2300 h1        1 MOL      0.046932
    129 H59         4.1790   -4.6190   -2.6480 h1        1 MOL      0.183366
    130 H60         6.0160   -4.2880   -2.3340 h1        1 MOL      0.183366
    131 H61         4.4630   -2.7810   -3.5970 ho        1 MOL      0.335095
    132 N12         7.1480   -3.7030   -0.0730 n         1 MOL     -0.443009
    133 C43         8.2900   -2.9910    0.4450 c3        1 MOL      0.174131
    134 C44         8.4650   -1.6500   -0.2300 c         1 MOL      0.464990
    135 O18         8.7310   -0.6620    0.4100 o         1 MOL     -0.496871
    136 C45         9.5360   -3.8800    0.3820 c3        1 MOL     -0.190212
    137 H62         7.2050   -4.6110   -0.5060 hn        1 MOL      0.296225
    138 H63         8.1090   -2.8040    1.5030 h1        1 MOL      0.045373
    139 H64        10.2690   -3.5370    1.1010 hc        1 MOL      0.057753
    140 H65         9.2040   -4.9180    0.4730 hc        1 MOL      0.057753
    141 H66         9.9610   -3.8030   -0.6240 hc        1 MOL      0.057753
    142 N13         8.2470   -1.6480   -1.5200 n         1 MOL     -0.371615
    143 C46         8.2320   -0.4730   -2.3750 c3        1 MOL      0.068127
    144 C47         7.3950    0.6480   -1.8340 c         1 MOL      0.390015
    145 O19         7.8020    1.7960   -1.6990 o         1 MOL     -0.477223
    146 C48         7.7870   -1.0650   -3.7110 c3        1 MOL     -0.136073
    147 H67         7.9610   -2.5430   -1.8850 hn        1 MOL      0.254359
    148 H68         9.2330   -0.1290   -2.6110 h1        1 MOL      0.076242
    149 H69         8.4160   -1.9200   -3.9820 hc        1 MOL      0.023743
    150 H70         6.7490   -1.4020   -3.7250 hc        1 MOL      0.023743
    151 H71         7.9780   -0.2660   -4.4280 hc        1 MOL      0.023743
    152 N14         6.1560    0.2810   -1.4930 n         1 MOL     -0.101909
    153 C49         5.3020    1.2900   -0.8550 c3        1 MOL      0.011003
    154 C50         5.8280    1.8640    0.4750 c         1 MOL      0.397044
    155 O20         5.9290    3.0780    0.6090 o         1 MOL     -0.536642
    156 C51         3.9450    0.7030   -0.6820 c3        1 MOL      0.031925
    157 C52         2.9810    0.8250   -1.8760 c3        1 MOL      0.138270
    158 C53         1.5700    0.3220   -1.5620 c         1 MOL      0.651927
    159 O21         1.2550   -0.8310   -1.9240 o         1 MOL     -0.763781
    160 O22         0.7110    1.0400   -0.9540 o         1 MOL     -0.763781
    161 H72         5.8650   -0.6750   -1.3980 hn        1 MOL      0.061753
    162 H73         5.1790    2.1490   -1.5180 h1        1 MOL      0.054363
    163 H74         3.4240    1.2510    0.1040 hc        1 MOL      0.017546
    164 H75         4.0350   -0.3410   -0.3680 hc        1 MOL      0.017546
    165 H76         3.5400    0.3170   -2.6760 hc        1 MOL     -0.081134
    166 H77         2.9110    1.8640   -2.1810 hc        1 MOL     -0.081134
    167 N15         6.2780    1.0330    1.4140 n         1 MOL     -0.087486
    168 C54         6.9350    1.4360    2.6780 c3        1 MOL     -0.190264
    169 H78         7.9990    1.2070    2.6230 h1        1 MOL      0.088980
    170 H79         6.8030    2.5070    2.8310 h1        1 MOL      0.088980
    171 H80         6.4890    0.8920    3.5100 h1        1 MOL      0.088980
    172 H81         6.1520    0.0500    1.2470 hn        1 MOL      0.113293
    173 Ca1        -1.4040   -0.2030   -1.8300 Ca        1 MOL      1.756827
    174 O23        -0.4180    0.0900   -4.3320 oh        1 MOL     -0.860602
    175 H82         0.2800   -0.4880   -4.6480 ho        1 MOL      0.418467
    176 H83        -0.1640    0.9570   -4.6370 ho        1 MOL      0.418467
    177 O24        -0.9750   -2.6790   -2.5420 oh        1 MOL     -0.860602
    178 H84        -0.9990   -3.0920   -3.4110 ho        1 MOL      0.418467
    179 H85        -0.2660   -3.1370   -2.0850 ho        1 MOL      0.418467
@<TRIPOS>BOND
     1    1    2 1   
     2    1    4 1   
     3    1    5 1   
     4    1    6 1   
     5    2    3 2   
     6    2    7 1   
     7    7    8 1   
     8    7   15 1   
     9    8    9 1   
    10    8   11 1   
    11    8   16 1   
    12    9   10 2   
    13    9   19 1   
    14   11   12 1   
    15   11   17 1   
    16   11   18 1   
    17   12   13 1   
    18   12   14 1   
    19   19   20 1   
    20   19   28 1   
    21   20   21 1   
    22   20   23 1   
    23   20   29 1   
    24   21   22 2   
    25   21   41 1   
    26   23   24 1   
    27   23   30 1   
    28   23   31 1   
    29   24   25 1   
    30   24   32 1   
    31   24   33 1   
    32   25   26 1   
    33   25   34 1   
    34   25   35 1   
    35   26   27 1   
    36   26   36 1   
    37   26   37 1   
    38   27   38 1   
    39   27   39 1   
    40   27   40 1   
    41   41   42 1   
    42   41   49 1   
    43   42   43 1   
    44   42   45 1   
    45   42   50 1   
    46   43   44 2   
    47   43   53 1   
    48   45   46 1   
    49   45   51 1   
    50   45   52 1   
    51   46   47 1   
    52   46   48 1   
    53   53   54 1   
    54   53   57 1   
    55   54   55 1   
    56   54   58 1   
    57   54   59 1   
    58   55   56 2   
    59   55   60 1   
    60   60   61 1   
    61   60   68 1   
    62   61   62 1   
    63   61   64 1   
    64   61   69 1   
    65   62   63 2   
    66   62   74 1   
    67   64   65 1   
    68   64   70 1   
    69   64   71 1   
    70   65   66 1   
    71   65   67 2   
    72   66   72 1   
    73   66   73 1   
    74   74   75 1   
    75   74   78 1   
    76   75   76 1   
    77   75   79 1   
    78   75   80 1   
    79   76   77 2   
    80   76   81 1   
    81   81   82 1   
    82   81   93 1   
    83   82   83 1   
    84   82   85 1   
    85   82   94 1   
    86   83   84 2   
    87   83  102 1   
    88   85   86 1   
    89   85   95 1   
    90   85   96 1   
    91   86   87 ar  
    92   86   88 ar  
    93   87   89 ar  
    94   87   97 1   
    95   88   90 ar  
    96   88   98 1   
    97   89   91 ar  
    98   89   99 1   
    99   90   91 ar  
   100   90  100 1   
   101   91   92 1   
   102   92  101 1   
   103  102  103 1   
   104  102  110 1   
   105  103  104 1   
   106  103  106 1   
   107  103  111 1   
   108  104  105 2   
   109  104  121 1   
   110  106  107 1   
   111  106  108 1   
   112  106  112 1   
   113  107  109 1   
   114  107  113 1   
   115  107  114 1   
   116  108  115 1   
   117  108  116 1   
   118  108  117 1   
   119  109  118 1   
   120  109  119 1   
   121  109  120 1   
   122  121  122 1   
   123  121  127 1   
   124  122  123 1   
   125  122  125 1   
   126  122  128 1   
   127  123  124 2   
   128  123  132 1   
   129  125  126 1   
   130  125  129 1   
   131  125  130 1   
   132  126  131 1   
   133  132  133 1   
   134  132  137 1   
   135  133  134 1   
   136  133  136 1   
   137  133  138 1   
   138  134  135 2   
   139  134  142 1   
   140  136  139 1   
   141  136  140 1   
   142  136  141 1   
   143  142  143 1   
   144  142  147 1   
   145  143  144 1   
   146  143  146 1   
   147  143  148 1   
   148  144  145 2   
   149  144  152 1   
   150  146  149 1   
   151  146  150 1   
   152  146  151 1   
   153  152  153 1   
   154  152  161 1   
   155  153  154 1   
   156  153  156 1   
   157  153  162 1   
   158  154  155 2   
   159  154  167 1   
   160  156  157 1   
   161  156  163 1   
   162  156  164 1   
   163  157  158 1   
   164  157  165 1   
   165  157  166 1   
   166  158  159 1   
   167  158  160 1   
   168  167  168 1   
   169  167  172 1   
   170  168  169 1   
   171  168  170 1   
   172  168  171 1   
   173  174  175 1   
   174  174  176 1   
   175  177  178 1   
   176  177  179 1   
@<TRIPOS>SUBSTRUCTURE
     1 MOL         1 TEMP              0 ****  ****    0 ROOT
