@<TRIPOS>MOLECULE
MOL
  189   185     1     0     0
SMALL
resp


@<TRIPOS>ATOM
      1 C1          0.2130   -4.2390    6.0850 c3        1 MOL     -0.396054
      2 C2          0.7360   -3.8430    4.7860 c         1 MOL      0.787901
      3 O1          0.7380   -2.6500    4.4980 o         1 MOL     -0.639273
      4 H1          1.0280   -4.2720    6.8090 hc        1 MOL      0.102043
      5 H2         -0.5330   -3.5150    6.4130 hc        1 MOL      0.102043
      6 H3         -0.2460   -5.2240    6.0080 hc        1 MOL      0.102043
      7 N1          1.1010   -4.6950    3.8250 n         1 MOL     -0.639021
      8 C3          1.6730   -4.2620    2.5510 c3        1 MOL      0.236186
      9 C4          1.3780   -5.2570    1.4540 c         1 MOL      0.438106
     10 O2          1.2330   -6.4820    1.6770 o         1 MOL     -0.557036
     11 C5          3.1570   -3.9380    2.5910 c3        1 MOL     -0.120771
     12 C6          3.7040   -3.5280    1.2460 c         1 MOL      0.644121
     13 O3          4.4560   -4.3440    0.6210 o         1 MOL     -0.629905
     14 O4          3.3960   -2.3650    0.8330 o         1 MOL     -0.629905
     15 H4          0.9470   -5.6800    3.9380 hn        1 MOL      0.302562
     16 H5          1.1120   -3.3340    2.3950 h1        1 MOL      0.105042
     17 H6          3.6600   -4.8440    2.9340 hc        1 MOL      0.004429
     18 H7          3.3700   -3.1890    3.3540 hc        1 MOL      0.004429
     19 N2          1.2950   -4.7020    0.2100 n         1 MOL     -0.027858
     20 C7          0.8860   -5.5420   -0.9100 c3        1 MOL     -0.051220
     21 C8          1.9160   -5.3360   -2.0370 c         1 MOL      0.554575
     22 O5          2.1780   -6.3240   -2.7360 o         1 MOL     -0.623185
     23 C9         -0.6090   -5.2570   -1.4480 c3        1 MOL      0.179354
     24 C10        -1.5920   -5.4780   -0.3310 c3        1 MOL      0.011667
     25 C11        -1.0310   -5.9610   -2.8190 c3        1 MOL     -0.274468
     26 C12        -3.1050   -5.4750   -0.5990 c3        1 MOL     -0.087750
     27 H8          1.3830   -3.7010    0.1460 hn        1 MOL     -0.192076
     28 H9          1.0740   -6.5810   -0.6160 h1        1 MOL      0.064065
     29 H10        -0.5050   -4.1760   -1.5340 hc        1 MOL     -0.033757
     30 H11        -1.3500   -4.8670    0.5410 hc        1 MOL     -0.027964
     31 H12        -1.3850   -6.4770    0.0730 hc        1 MOL     -0.027964
     32 H13        -0.4800   -5.3580   -3.5400 hc        1 MOL      0.060965
     33 H14        -0.6820   -6.9890   -2.8350 hc        1 MOL      0.060965
     34 H15        -2.1030   -5.9870   -3.0330 hc        1 MOL      0.060965
     35 H16        -3.3580   -6.2330   -1.3320 hc        1 MOL      0.036170
     36 H17        -3.7000   -5.6410    0.2890 hc        1 MOL      0.036170
     37 H18        -3.2900   -4.4340   -0.8760 hc        1 MOL      0.036170
     38 N3          2.4890   -4.1850   -2.2060 n         1 MOL     -0.309589
     39 C13         3.2450   -3.6790   -3.4130 c3        1 MOL      0.185463
     40 C14         4.7380   -3.3340   -3.1310 c         1 MOL      0.360844
     41 O6          5.4770   -3.0580   -4.0490 o         1 MOL     -0.548977
     42 C15         2.4420   -2.6350   -4.1210 c3        1 MOL     -0.134168
     43 C16         2.2590   -1.3210   -3.3190 c         1 MOL      0.738527
     44 O7          2.7450   -1.1870   -2.2040 o         1 MOL     -0.716918
     45 O8          1.6430   -0.3500   -3.8340 o         1 MOL     -0.716918
     46 H19         2.4710   -3.5510   -1.4170 hn        1 MOL      0.229984
     47 H20         3.3980   -4.4880   -4.1150 h1        1 MOL      0.029827
     48 H21         1.4410   -2.9550   -4.3800 hc        1 MOL      0.024956
     49 H22         2.9920   -2.4780   -5.0430 hc        1 MOL      0.024956
     50 N4          5.1040   -3.1740   -1.8500 n         1 MOL     -0.059262
     51 C17         6.5260   -2.9550   -1.4160 c3        1 MOL     -0.166208
     52 C18         7.0540   -1.5910   -1.7230 c         1 MOL      0.470682
     53 O9          8.2380   -1.3510   -1.6980 o         1 MOL     -0.615122
     54 H23         4.5190   -3.3680   -1.0540 hn        1 MOL      0.015077
     55 H24         7.2370   -3.6890   -1.7740 h1        1 MOL      0.102736
     56 H25         6.4520   -3.0780   -0.3400 h1        1 MOL      0.102736
     57 N5          6.1770   -0.6050   -2.0460 n         1 MOL     -0.041862
     58 C19         6.5830    0.7030   -2.5710 c3        1 MOL     -0.088367
     59 C20         7.0860    1.7890   -1.4820 c         1 MOL      0.494446
     60 O10         7.3680    2.9040   -1.7130 o         1 MOL     -0.529621
     61 C21         5.3590    1.4170   -3.3050 c3        1 MOL     -0.273329
     62 C22         4.1740    1.6690   -2.3720 c         1 MOL      0.847047
     63 O11         4.2330    1.2200   -1.2050 o         1 MOL     -0.683696
     64 O12         3.2680    2.4340   -2.8270 o         1 MOL     -0.683696
     65 H26         5.1840   -0.7260   -1.8920 hn        1 MOL      0.053097
     66 H27         7.4320    0.6200   -3.2520 h1        1 MOL      0.102511
     67 H28         5.0840    0.7490   -4.1150 hc        1 MOL      0.070280
     68 H29         5.7600    2.3510   -3.6690 hc        1 MOL      0.070280
     69 N6          7.1420    1.4920   -0.2070 n         1 MOL     -0.350868
     70 C23         7.5070    2.4050    0.9290 c3        1 MOL     -0.093946
     71 C24         6.4770    3.3940    1.4170 c         1 MOL      0.494705
     72 O13         6.7000    4.2890    2.2870 o         1 MOL     -0.615540
     73 H30         6.8230    0.5850    0.0840 hn        1 MOL      0.264008
     74 H31         8.4390    2.9220    0.7210 h1        1 MOL      0.082250
     75 H32         7.7330    1.7670    1.7810 h1        1 MOL      0.082250
     76 N7          5.1710    3.2420    1.0950 n         1 MOL     -0.173757
     77 C25         3.9820    4.0950    1.4080 c3        1 MOL     -0.073472
     78 C26         2.7140    3.2870    1.5790 c         1 MOL      0.361773
     79 O14         2.8030    2.1340    1.2540 o         1 MOL     -0.437141
     80 C27         3.7690    5.2000    0.4670 c3        1 MOL     -0.125528
     81 C28         4.8510    6.3070    0.4960 c3        1 MOL     -0.150692
     82 C29         4.5050    7.6170   -0.1660 c         1 MOL      0.645392
     83 N8          5.4670    8.3170   -0.6360 n         1 MOL     -0.788414
     84 O15         3.3430    7.9700   -0.3350 o         1 MOL     -0.569102
     85 H33         4.9160    2.4660    0.5040 hn        1 MOL      0.178743
     86 H34         4.2160    4.4990    2.3900 h1        1 MOL      0.081380
     87 H35         2.8360    5.7250    0.6360 hc        1 MOL      0.077548
     88 H36         3.7480    4.7380   -0.5270 hc        1 MOL      0.077548
     89 H37         5.7730    5.8370    0.1300 hc        1 MOL      0.070469
     90 H38         5.0920    6.4600    1.5430 hc        1 MOL      0.070469
     91 H39         6.4020    7.9470   -0.7510 hn        1 MOL      0.353767
     92 H40         5.1920    9.1580   -1.1210 hn        1 MOL      0.353767
     93 N9          1.6020    3.8280    2.0700 n         1 MOL     -0.285094
     94 C30         0.4110    3.0880    2.3410 c3        1 MOL     -0.023595
     95 C31        -0.8250    3.4280    1.4400 c         1 MOL      0.444561
     96 O16        -1.3370    4.5670    1.5090 o         1 MOL     -0.575077
     97 C32        -0.0610    3.3770    3.7940 c3        1 MOL      0.313669
     98 C33        -1.1580    2.3650    4.2490 c3        1 MOL     -0.359733
     99 C34         1.1010    3.2310    4.7450 c3        1 MOL     -0.359733
    100 H41         1.6700    4.8230    2.2310 hn        1 MOL      0.267182
    101 H42         0.6690    2.0370    2.2870 h1        1 MOL      0.082234
    102 H43        -0.4430    4.3890    3.9330 hc        1 MOL     -0.030859
    103 H44        -2.0800    2.6900    3.7930 hc        1 MOL      0.073224
    104 H45        -1.0010    1.3260    3.9730 hc        1 MOL      0.073224
    105 H46        -1.2130    2.3370    5.3370 hc        1 MOL      0.073224
    106 H47         0.7710    3.3130    5.7830 hc        1 MOL      0.073224
    107 H48         1.5500    2.2340    4.7640 hc        1 MOL      0.073224
    108 H49         1.8490    3.9920    4.5020 hc        1 MOL      0.073224
    109 N10        -1.3450    2.4510    0.6590 n         1 MOL     -0.156434
    110 C35        -2.5420    2.4820   -0.1460 c3        1 MOL      0.012928
    111 C36        -3.7990    2.3920    0.7490 c         1 MOL      0.178356
    112 O17        -3.8090    1.6610    1.7250 o         1 MOL     -0.223425
    113 C37        -2.4280    1.4670   -1.3080 c3        1 MOL     -0.266561
    114 C38        -3.4510    1.7800   -2.3650 c         1 MOL      0.612130
    115 N11        -3.4380    2.9480   -2.9910 n         1 MOL     -0.670999
    116 O18        -4.4370    1.0960   -2.5430 o         1 MOL     -0.538406
    117 H50        -0.8590    1.5680    0.7100 hn        1 MOL      0.066468
    118 H51        -2.6010    3.5120   -0.5090 h1        1 MOL      0.081642
    119 H52        -2.5720    0.4820   -0.8520 hc        1 MOL      0.128693
    120 H53        -1.4210    1.4400   -1.7190 hc        1 MOL      0.128693
    121 H54        -2.5930    3.4900   -2.9260 hn        1 MOL      0.317182
    122 H55        -4.1020    3.0780   -3.7390 hn        1 MOL      0.317182
    123 N12        -4.9180    2.9990    0.2920 n         1 MOL     -0.108232
    124 C39        -6.2160    2.6690    0.8530 c3        1 MOL     -0.004205
    125 C40        -6.6330    1.1510    0.6560 c         1 MOL      0.383632
    126 O19        -7.5660    0.6470    1.3730 o         1 MOL     -0.594226
    127 C41        -7.2740    3.6070    0.1320 c3        1 MOL     -0.390578
    128 C42        -7.4160    3.3830   -1.3370 ca        1 MOL      0.022043
    129 C43        -6.7530    4.3290   -2.1650 ca        1 MOL     -0.008217
    130 C44        -8.1050    2.2960   -1.8670 ca        1 MOL     -0.008217
    131 C45        -6.8480    4.2180   -3.5640 ca        1 MOL     -0.544776
    132 C46        -8.0520    2.1380   -3.2870 ca        1 MOL     -0.544776
    133 C47        -7.5070    3.1030   -4.1360 ca        1 MOL      0.640111
    134 O20        -7.7260    2.8970   -5.4390 oh        1 MOL     -0.508140
    135 H56        -4.8330    3.4690   -0.5920 hn        1 MOL      0.075611
    136 H57        -6.2160    2.9050    1.9130 h1        1 MOL      0.106577
    137 H58        -7.0650    4.6480    0.3580 hc        1 MOL      0.119051
    138 H59        -8.2450    3.3680    0.5640 hc        1 MOL      0.119051
    139 H60        -6.1690    5.1100   -1.7080 ha        1 MOL      0.126774
    140 H61        -8.6670    1.5870   -1.2810 ha        1 MOL      0.126774
    141 H62        -6.3550    4.9260   -4.2230 ha        1 MOL      0.172233
    142 H63        -8.7680    1.4000   -3.6200 ha        1 MOL      0.172233
    143 H64        -7.5200    3.5350   -6.1270 ho        1 MOL      0.343663
    144 N13        -6.0310    0.2950   -0.1430 n         1 MOL      0.143829
    145 C48        -6.2890   -1.1590   -0.0810 c3        1 MOL     -0.401290
    146 C49        -5.4400   -1.8990    1.0410 c         1 MOL      0.457808
    147 O21        -5.7210   -3.0190    1.3890 o         1 MOL     -0.514641
    148 C50        -5.8170   -1.8240   -1.3970 c3        1 MOL      0.220696
    149 C51        -6.8510   -1.6000   -2.5720 c3        1 MOL     -0.282262
    150 C52        -8.3080   -1.9330   -2.0470 c         1 MOL      0.659998
    151 O22        -8.4840   -2.8370   -1.2430 o         1 MOL     -0.688883
    152 O23        -9.2740   -1.1890   -2.3930 o         1 MOL     -0.688883
    153 H65        -5.4230    0.6700   -0.8610 hn        1 MOL      0.401134
    154 H66        -7.3260   -1.3860    0.1650 h1        1 MOL      0.232944
    155 H67        -5.6640   -2.8790   -1.1560 hc        1 MOL     -0.066184
    156 H68        -4.9390   -1.2670   -1.7190 hc        1 MOL     -0.066184
    157 H69        -6.6960   -2.4230   -3.2730 hc        1 MOL      0.039709
    158 H70        -6.7970   -0.5970   -3.0070 hc        1 MOL      0.039709
    159 N14        -4.4030   -1.2700    1.5160 n         1 MOL     -0.057725
    160 C53        -3.5160   -1.7030    2.5680 c3        1 MOL     -0.166776
    161 C54        -4.0700   -1.0960    3.9240 c         1 MOL      0.493131
    162 O24        -4.0100   -1.7120    4.9670 o         1 MOL     -0.563229
    163 C55        -2.1030   -1.1950    2.3420 c3        1 MOL      0.057126
    164 C56        -1.5600   -1.8570    1.0270 c3        1 MOL      0.088439
    165 C57        -0.2430   -1.2310    0.5630 c         1 MOL      0.550687
    166 O25         0.5080   -1.7780   -0.2940 o         1 MOL     -0.612696
    167 O26         0.0330   -0.0420    0.9110 o         1 MOL     -0.612696
    168 H71        -4.0620   -0.4640    1.0090 hn        1 MOL     -0.051642
    169 H72        -3.4800   -2.7950    2.5540 h1        1 MOL      0.077691
    170 H73        -1.4190   -1.5040    3.1280 hc        1 MOL      0.047213
    171 H74        -2.1870   -0.1140    2.2170 hc        1 MOL      0.047213
    172 H75        -2.2430   -2.0450    0.1970 hc        1 MOL     -0.002601
    173 H76        -1.3300   -2.8640    1.3830 hc        1 MOL     -0.002601
    174 N15        -4.6320    0.1180    3.8580 n         1 MOL     -0.156367
    175 C58        -5.1910    0.7540    5.1240 c3        1 MOL     -0.155694
    176 H77        -4.7230    1.7260    5.2790 h1        1 MOL      0.067302
    177 H78        -6.2690    0.8810    5.0220 h1        1 MOL      0.067302
    178 H79        -4.9800    0.1090    5.9780 h1        1 MOL      0.067302
    179 H80        -4.7310    0.7040    3.0340 hn        1 MOL      0.064688
    180 Ca1         2.5380   -0.1580    0.0070 Ca        1 MOL      1.751470
    181 O27         2.0430   -0.6630    2.9120 oh        1 MOL     -0.889571
    182 O28         1.2540    1.5130   -1.6470 oh        1 MOL     -0.889571
    183 H81         1.5590   -1.3170    3.4240 ho        1 MOL      0.407309
    184 H82         1.3310    0.8000   -2.2770 ho        1 MOL      0.407309
    185 H83         2.6380   -0.2740    3.5470 ho        1 MOL      0.407309
    186 H84         2.0140    2.0730   -1.8290 ho        1 MOL      0.407309
    187 O29         4.9950    0.2330    1.6410 oh        1 MOL     -0.889571
    188 H85         4.5560    0.3920    2.4810 ho        1 MOL      0.407309
    189 H86         5.8470   -0.1400    1.8890 ho        1 MOL      0.407309
@<TRIPOS>BOND
     1    1    2 1   
     2    1    4 1   
     3    1    5 1   
     4    1    6 1   
     5    2    3 2   
     6    2    7 1   
     7    7    8 1   
     8    7   15 1   
     9    8    9 1   
    10    8   11 1   
    11    8   16 1   
    12    9   10 2   
    13    9   19 1   
    14   11   12 1   
    15   11   17 1   
    16   11   18 1   
    17   12   13 1   
    18   12   14 1   
    19   19   20 1   
    20   19   27 1   
    21   20   21 1   
    22   20   23 1   
    23   20   28 1   
    24   21   22 2   
    25   21   38 1   
    26   23   24 1   
    27   23   25 1   
    28   23   29 1   
    29   24   26 1   
    30   24   30 1   
    31   24   31 1   
    32   25   32 1   
    33   25   33 1   
    34   25   34 1   
    35   26   35 1   
    36   26   36 1   
    37   26   37 1   
    38   38   39 1   
    39   38   46 1   
    40   39   40 1   
    41   39   42 1   
    42   39   47 1   
    43   40   41 2   
    44   40   50 1   
    45   42   43 1   
    46   42   48 1   
    47   42   49 1   
    48   43   44 1   
    49   43   45 1   
    50   50   51 1   
    51   50   54 1   
    52   51   52 1   
    53   51   55 1   
    54   51   56 1   
    55   52   53 2   
    56   52   57 1   
    57   57   58 1   
    58   57   65 1   
    59   58   59 1   
    60   58   61 1   
    61   58   66 1   
    62   59   60 2   
    63   59   69 1   
    64   61   62 1   
    65   61   67 1   
    66   61   68 1   
    67   62   63 1   
    68   62   64 1   
    69   69   70 1   
    70   69   73 1   
    71   70   71 1   
    72   70   74 1   
    73   70   75 1   
    74   71   72 2   
    75   71   76 1   
    76   76   77 1   
    77   76   85 1   
    78   77   78 1   
    79   77   80 1   
    80   77   86 1   
    81   78   79 2   
    82   78   93 1   
    83   80   81 1   
    84   80   87 1   
    85   80   88 1   
    86   81   82 1   
    87   81   89 1   
    88   81   90 1   
    89   82   83 1   
    90   82   84 2   
    91   83   91 1   
    92   83   92 1   
    93   93   94 1   
    94   93  100 1   
    95   94   95 1   
    96   94   97 1   
    97   94  101 1   
    98   95   96 2   
    99   95  109 1   
   100   97   98 1   
   101   97   99 1   
   102   97  102 1   
   103   98  103 1   
   104   98  104 1   
   105   98  105 1   
   106   99  106 1   
   107   99  107 1   
   108   99  108 1   
   109  109  110 1   
   110  109  117 1   
   111  110  111 1   
   112  110  113 1   
   113  110  118 1   
   114  111  112 2   
   115  111  123 1   
   116  113  114 1   
   117  113  119 1   
   118  113  120 1   
   119  114  115 1   
   120  114  116 2   
   121  115  121 1   
   122  115  122 1   
   123  123  124 1   
   124  123  135 1   
   125  124  125 1   
   126  124  127 1   
   127  124  136 1   
   128  125  126 2   
   129  125  144 1   
   130  127  128 1   
   131  127  137 1   
   132  127  138 1   
   133  128  129 ar  
   134  128  130 ar  
   135  129  131 ar  
   136  129  139 1   
   137  130  132 ar  
   138  130  140 1   
   139  131  133 ar  
   140  131  141 1   
   141  132  133 ar  
   142  132  142 1   
   143  133  134 1   
   144  134  143 1   
   145  144  145 1   
   146  144  153 1   
   147  145  146 1   
   148  145  148 1   
   149  145  154 1   
   150  146  147 2   
   151  146  159 1   
   152  148  149 1   
   153  148  155 1   
   154  148  156 1   
   155  149  150 1   
   156  149  157 1   
   157  149  158 1   
   158  150  151 1   
   159  150  152 1   
   160  159  160 1   
   161  159  168 1   
   162  160  161 1   
   163  160  163 1   
   164  160  169 1   
   165  161  162 2   
   166  161  174 1   
   167  163  164 1   
   168  163  170 1   
   169  163  171 1   
   170  164  165 1   
   171  164  172 1   
   172  164  173 1   
   173  165  166 1   
   174  165  167 1   
   175  174  175 1   
   176  174  179 1   
   177  175  176 1   
   178  175  177 1   
   179  175  178 1   
   180  181  183 1   
   181  181  185 1   
   182  182  184 1   
   183  182  186 1   
   184  187  188 1   
   185  187  189 1   
@<TRIPOS>SUBSTRUCTURE
     1 MOL         1 TEMP              0 ****  ****    0 ROOT
