@<TRIPOS>MOLECULE
MOL
  189   185     1     0     0
SMALL
resp


@<TRIPOS>ATOM
      1 C1         -0.3530    3.4730   -4.6240 c3        1 MOL     -0.316845
      2 C2          0.2630    3.1650   -3.2680 c         1 MOL      0.634665
      3 O1         -0.3870    3.3470   -2.2460 o         1 MOL     -0.577512
      4 H1         -0.6940    2.5460   -5.0870 hc        1 MOL      0.079883
      5 H2         -1.2000    4.1460   -4.4950 hc        1 MOL      0.079883
      6 H3          0.3930    3.9450   -5.2640 hc        1 MOL      0.079883
      7 N1          1.5460    2.7200   -3.3270 n         1 MOL     -0.584093
      8 C3          2.2160    2.1040   -2.1680 c3        1 MOL      0.154357
      9 C4          2.7380    3.1820   -1.3000 c         1 MOL      0.393930
     10 O2          3.9220    3.4710   -1.2890 o         1 MOL     -0.474828
     11 C5          3.3480    1.0790   -2.6560 c3        1 MOL     -0.294450
     12 C6          4.0170    0.3260   -1.4200 c         1 MOL      0.781940
     13 O3          4.9650   -0.4400   -1.6080 o         1 MOL     -0.677729
     14 O4          3.3760    0.4050   -0.3140 o         1 MOL     -0.677729
     15 H4          2.1000    2.7250   -4.1810 hn        1 MOL      0.333761
     16 H5          1.4430    1.5690   -1.6320 h1        1 MOL      0.035054
     17 H6          4.2120    1.5970   -3.1000 hc        1 MOL      0.075865
     18 H7          2.8830    0.3850   -3.3390 hc        1 MOL      0.075865
     19 N2          1.9130    3.7970   -0.4250 n         1 MOL     -0.210711
     20 C7          2.2360    5.0210    0.3170 c3        1 MOL     -0.125183
     21 C8          3.4000    4.8050    1.2600 c         1 MOL      0.540603
     22 O5          4.1050    5.7160    1.5480 o         1 MOL     -0.583056
     23 C9          0.9990    5.6450    0.9820 c3        1 MOL     -0.202364
     24 C10        -0.0710    6.1610   -0.0130 c3        1 MOL      0.253492
     25 C11         0.3510    7.3960   -0.8080 c3        1 MOL     -0.070341
     26 C12        -0.8020    8.1960   -1.2780 c3        1 MOL     -0.130913
     27 N3         -1.4290    7.6470   -2.4920 n4        1 MOL     -0.302622
     28 H8          0.9690    3.4490   -0.3010 hn        1 MOL      0.306122
     29 H9          2.6510    5.7440   -0.3890 h1        1 MOL      0.067934
     30 H10         1.2160    6.5100    1.6160 hc        1 MOL      0.084424
     31 H11         0.4830    4.9030    1.5760 hc        1 MOL      0.084424
     32 H12        -0.8920    6.4470    0.6450 hc        1 MOL     -0.053013
     33 H13        -0.3670    5.3990   -0.7290 hc        1 MOL     -0.053013
     34 H14         0.9900    7.0350   -1.6160 hc        1 MOL      0.056773
     35 H15         0.9550    8.0510   -0.1740 hc        1 MOL      0.056773
     36 H16        -0.4500    9.1880   -1.5800 hx        1 MOL      0.126941
     37 H17        -1.5240    8.3460   -0.4730 hx        1 MOL      0.126941
     38 H18        -2.1730    8.2110   -2.8610 hn        1 MOL      0.318974
     39 H19        -0.7870    7.4710   -3.2530 hn        1 MOL      0.318974
     40 H20        -1.8490    6.7650   -2.2520 hn        1 MOL      0.318974
     41 N4          3.5660    3.5800    1.7320 n         1 MOL     -0.270900
     42 C13         4.5490    3.2440    2.7680 c3        1 MOL      0.060477
     43 C14         5.7030    2.3670    2.2510 c         1 MOL      0.373688
     44 O6          6.6550    2.0730    3.0010 o         1 MOL     -0.538230
     45 C15         3.7600    2.6830    4.0350 c3        1 MOL     -0.289411
     46 C16         2.6040    1.7380    3.6740 c         1 MOL      0.845874
     47 O7          1.8080    1.5260    4.5700 o         1 MOL     -0.741975
     48 O8          2.4700    1.3010    2.5650 o         1 MOL     -0.741975
     49 H21         2.9240    2.8470    1.4840 hn        1 MOL      0.234780
     50 H22         5.0550    4.1350    3.1430 h1        1 MOL      0.090065
     51 H23         3.3460    3.5040    4.6120 hc        1 MOL      0.071978
     52 H24         4.5280    2.1860    4.6410 hc        1 MOL      0.071978
     53 N5          5.6880    1.9900    0.9670 n         1 MOL     -0.050438
     54 C17         6.8450    1.5010    0.1540 c3        1 MOL     -0.282362
     55 C18         7.2680    0.0910    0.5270 c         1 MOL      0.544891
     56 O9          8.4230   -0.2710    0.4230 o         1 MOL     -0.589847
     57 H25         4.8580    2.2300    0.4520 hn        1 MOL      0.034334
     58 H26         7.6860    2.1450    0.3910 h1        1 MOL      0.133960
     59 H27         6.6190    1.6130   -0.9040 h1        1 MOL      0.133960
     60 N6          6.2910   -0.6720    1.0060 n         1 MOL     -0.151802
     61 C19         6.6060   -2.0550    1.5910 c3        1 MOL     -0.149351
     62 C20         6.6530   -3.1380    0.5050 c         1 MOL      0.418209
     63 O10         7.0590   -4.2420    0.7640 o         1 MOL     -0.548782
     64 C21         5.5890   -2.4270    2.7720 c3        1 MOL     -0.061772
     65 C22         4.1100   -2.1930    2.3830 c         1 MOL      0.571681
     66 O11         3.3630   -1.6730    3.2260 o         1 MOL     -0.638034
     67 O12         3.7070   -2.4530    1.2030 o         1 MOL     -0.638034
     68 H28         5.3650   -0.3060    0.8460 hn        1 MOL      0.122436
     69 H29         7.6020   -1.8980    2.0210 h1        1 MOL      0.151057
     70 H30         5.8950   -1.7330    3.5620 hc        1 MOL      0.046486
     71 H31         5.7290   -3.4050    3.2240 hc        1 MOL      0.046486
     72 N7          6.3170   -2.8780   -0.7300 n         1 MOL     -0.099062
     73 C23         6.4170   -3.6710   -1.9440 c3        1 MOL     -0.176777
     74 C24         5.1250   -4.3390   -2.3380 c         1 MOL      0.685272
     75 O13         5.1260   -5.2820   -3.0690 o         1 MOL     -0.583710
     76 H32         5.9780   -1.9580   -0.9790 hn        1 MOL      0.189070
     77 H33         7.1780   -4.4240   -1.7980 h1        1 MOL      0.078828
     78 H34         6.7500   -3.0230   -2.7580 h1        1 MOL      0.078828
     79 N8          4.0880   -3.7590   -1.6720 n         1 MOL     -0.494748
     80 C25         2.6900   -4.2540   -1.7490 c3        1 MOL     -0.211103
     81 C26         1.6960   -3.1400   -1.6920 c         1 MOL      0.853028
     82 O14         1.8450   -2.1690   -0.9490 o         1 MOL     -0.713106
     83 C27         2.3650   -5.2410   -0.5140 c3        1 MOL      0.539151
     84 C28         2.7920   -6.6770   -0.9190 c3        1 MOL     -0.482554
     85 O15         3.1800   -4.8120    0.6190 oh        1 MOL     -0.705131
     86 H35         4.2330   -3.0320   -0.9880 hn        1 MOL      0.328942
     87 H36         2.4550   -4.8750   -2.6080 h1        1 MOL      0.103618
     88 H37         1.3290   -5.1130   -0.2150 h1        1 MOL     -0.068443
     89 H38         3.3730   -3.8810    0.6120 ho        1 MOL      0.481663
     90 H39         2.1210   -6.9920   -1.7180 hc        1 MOL      0.125251
     91 H40         3.7990   -6.6340   -1.3330 hc        1 MOL      0.125251
     92 H41         2.8190   -7.3410   -0.0500 hc        1 MOL      0.125251
     93 N9          0.5880   -3.2810   -2.4050 n         1 MOL     -0.757657
     94 C29        -0.5690   -2.3450   -2.4150 c3        1 MOL      0.057948
     95 C30        -1.7830   -2.9930   -1.6850 c         1 MOL      0.602687
     96 O16        -2.2110   -4.0760   -2.0870 o         1 MOL     -0.585309
     97 C31        -0.9640   -1.9330   -3.8770 c3        1 MOL      0.371950
     98 C32         0.1890   -1.3650   -4.6520 c3        1 MOL      0.004749
     99 C33        -2.2210   -1.0640   -3.8400 c3        1 MOL     -0.337017
    100 C34        -0.1280   -1.0700   -6.1650 c3        1 MOL     -0.318355
    101 H42         0.5730   -3.9840   -3.1340 hn        1 MOL      0.328023
    102 H43        -0.3320   -1.4100   -1.9190 h1        1 MOL      0.072777
    103 H44        -1.2800   -2.8730   -4.3360 hc        1 MOL     -0.059290
    104 H45         1.0810   -1.9820   -4.5570 hc        1 MOL      0.020368
    105 H46         0.4660   -0.3920   -4.2290 hc        1 MOL      0.020368
    106 H47        -2.9420   -1.4790   -3.1400 hc        1 MOL      0.046854
    107 H48        -2.0150   -0.0260   -3.5620 hc        1 MOL      0.046854
    108 H49        -2.7300   -1.1490   -4.8090 hc        1 MOL      0.046854
    109 H50        -1.0300   -0.4590   -6.2240 hc        1 MOL      0.082186
    110 H51         0.6770   -0.4640   -6.5710 hc        1 MOL      0.082186
    111 H52        -0.3550   -1.9800   -6.7190 hc        1 MOL      0.082186
    112 N10        -2.3570   -2.4210   -0.6330 n         1 MOL     -0.166147
    113 C35        -3.6290   -2.9210    0.0540 c3        1 MOL     -0.087930
    114 C36        -4.8290   -2.4720   -0.7590 c         1 MOL      0.407543
    115 O17        -4.8820   -1.5490   -1.5710 o         1 MOL     -0.330586
    116 C37        -3.6920   -2.4650    1.4900 c3        1 MOL      0.077060
    117 C38        -2.6410   -2.8780    2.4160 c3        1 MOL     -0.498539
    118 O18        -3.6230   -1.0680    1.4040 oh        1 MOL     -0.340231
    119 H53        -1.9920   -1.6150   -0.1460 hn        1 MOL      0.057904
    120 H54        -3.6040   -4.0110    0.0670 h1        1 MOL      0.095138
    121 H55        -4.6620   -2.6900    1.9410 h1        1 MOL      0.098699
    122 H56        -2.7080   -0.8130    1.5180 ho        1 MOL      0.288091
    123 H57        -2.8990   -2.5960    3.4370 hc        1 MOL      0.166135
    124 H58        -2.4660   -3.9560    2.4270 hc        1 MOL      0.166135
    125 H59        -1.6770   -2.4520    2.1450 hc        1 MOL      0.166135
    126 N11        -6.0030   -2.9650   -0.3350 n         1 MOL     -0.319852
    127 C39        -7.3040   -2.2570   -0.5520 c3        1 MOL     -0.272564
    128 C40        -7.2700   -0.7510   -0.1760 c         1 MOL      0.505059
    129 O19        -7.9450   -0.0060   -0.8810 o         1 MOL     -0.488679
    130 C41        -8.5070   -2.8410    0.3020 c3        1 MOL      0.393631
    131 C42        -9.0210   -4.2500   -0.2450 c3        1 MOL     -0.423577
    132 O20        -8.0790   -2.9930    1.6090 oh        1 MOL     -0.622471
    133 H60        -6.0410   -3.8220    0.2110 hn        1 MOL      0.275890
    134 H61        -7.5640   -2.3500   -1.6070 h1        1 MOL      0.174331
    135 H62        -9.3570   -2.1630    0.3170 h1        1 MOL      0.020296
    136 H63        -8.9050   -2.9720    2.0820 ho        1 MOL      0.394266
    137 H64        -9.6750   -4.1370   -1.1170 hc        1 MOL      0.118152
    138 H65        -8.1710   -4.7590   -0.7010 hc        1 MOL      0.118152
    139 H66        -9.3630   -4.8470    0.6020 hc        1 MOL      0.118152
    140 N12        -6.5570   -0.3880    0.8970 n         1 MOL     -0.241014
    141 C43        -6.6050    0.9480    1.3890 c3        1 MOL     -0.104626
    142 C44        -5.9190    1.8650    0.3880 c         1 MOL      0.277785
    143 O21        -6.5490    2.8340   -0.0740 o         1 MOL     -0.505072
    144 C45        -5.9810    1.1940    2.7740 c3        1 MOL      0.031856
    145 C46        -6.6170    0.2450    3.8400 c3        1 MOL      0.015598
    146 C47        -6.1110    0.6200    5.2320 c3        1 MOL     -0.081080
    147 C48        -6.3890   -0.4850    6.2540 c3        1 MOL     -0.245319
    148 N13        -5.5770   -1.6620    6.0310 n4        1 MOL     -0.399949
    149 H67        -5.9240   -1.0860    1.2540 hn        1 MOL      0.083884
    150 H68        -7.6290    1.3000    1.4860 h1        1 MOL      0.129483
    151 H69        -5.9640    2.2180    3.1460 hc        1 MOL      0.022585
    152 H70        -4.9040    1.0350    2.7160 hc        1 MOL      0.022585
    153 H71        -6.1720   -0.7390    3.6950 hc        1 MOL      0.022815
    154 H72        -7.7080    0.2140    3.7790 hc        1 MOL      0.022815
    155 H73        -6.6260    1.5090    5.5880 hc        1 MOL      0.084706
    156 H74        -5.0370    0.8480    5.2690 hc        1 MOL      0.084706
    157 H75        -7.4340   -0.7600    6.1350 hx        1 MOL      0.177995
    158 H76        -6.1160   -0.0780    7.2290 hx        1 MOL      0.177995
    159 H77        -5.6780   -2.1900    6.8870 hn        1 MOL      0.352520
    160 H78        -5.9100   -2.1380    5.2080 hn        1 MOL      0.352520
    161 H79        -4.5940   -1.4150    6.0030 hn        1 MOL      0.352520
    162 N14        -4.7770    1.5070   -0.0630 n         1 MOL      0.186037
    163 C49        -3.9850    2.2190   -1.0330 c3        1 MOL     -0.225495
    164 C50        -4.6050    2.2540   -2.4460 c         1 MOL      0.439195
    165 O22        -4.5540    3.3200   -3.0600 o         1 MOL     -0.555523
    166 C51        -2.6860    1.4530   -1.1110 c3        1 MOL     -0.070814
    167 C52        -1.9510    1.8280    0.1740 c3        1 MOL      0.061665
    168 C53        -0.7110    0.9800    0.4120 c         1 MOL      0.658200
    169 O23         0.4290    1.4820    0.7100 o         1 MOL     -0.714766
    170 O24        -0.7980   -0.2670    0.5120 o         1 MOL     -0.714766
    171 H80        -4.4070    0.6430    0.3040 hn        1 MOL      0.005053
    172 H81        -3.7980    3.2320   -0.6830 h1        1 MOL      0.098460
    173 H82        -2.0670    1.7780   -1.9470 hc        1 MOL      0.083415
    174 H83        -2.8720    0.3810   -1.2320 hc        1 MOL      0.083415
    175 H84        -2.5840    1.8250    1.0570 hc        1 MOL     -0.033806
    176 H85        -1.6760    2.8920    0.1530 hc        1 MOL     -0.033806
    177 N15        -5.4110    1.2360   -2.7770 n         1 MOL     -0.034598
    178 C54        -6.2120    1.1530   -4.0550 c3        1 MOL     -0.326480
    179 H86        -6.3740    0.1070   -4.3150 h1        1 MOL      0.126384
    180 H87        -7.1740    1.6450   -3.9140 h1        1 MOL      0.126384
    181 H88        -5.6660    1.6470   -4.8590 h1        1 MOL      0.126384
    182 H89        -5.4170    0.5140   -2.0820 hn        1 MOL      0.098914
    183 Ca1         1.6310   -0.7710    1.2820 Ca        1 MOL      1.759929
    184 O25         0.4010   -0.5240    3.5600 oh        1 MOL     -0.891135
    185 H90         1.1020    0.0360    3.9080 ho        1 MOL      0.403512
    186 H91        -0.4110   -0.0950    3.8490 ho        1 MOL      0.403512
    187 O26         0.9410   -3.2740    1.9960 oh        1 MOL     -0.891135
    188 H92         0.5080   -3.8370    2.6440 ho        1 MOL      0.403512
    189 H93         1.8470   -3.5840    1.9900 ho        1 MOL      0.403512
@<TRIPOS>BOND
     1    1    2 1   
     2    1    4 1   
     3    1    5 1   
     4    1    6 1   
     5    2    3 2   
     6    2    7 1   
     7    7    8 1   
     8    7   15 1   
     9    8    9 1   
    10    8   11 1   
    11    8   16 1   
    12    9   10 2   
    13    9   19 1   
    14   11   12 1   
    15   11   17 1   
    16   11   18 1   
    17   12   13 1   
    18   12   14 1   
    19   19   20 1   
    20   19   28 1   
    21   20   21 1   
    22   20   23 1   
    23   20   29 1   
    24   21   22 2   
    25   21   41 1   
    26   23   24 1   
    27   23   30 1   
    28   23   31 1   
    29   24   25 1   
    30   24   32 1   
    31   24   33 1   
    32   25   26 1   
    33   25   34 1   
    34   25   35 1   
    35   26   27 1   
    36   26   36 1   
    37   26   37 1   
    38   27   38 1   
    39   27   39 1   
    40   27   40 1   
    41   41   42 1   
    42   41   49 1   
    43   42   43 1   
    44   42   45 1   
    45   42   50 1   
    46   43   44 2   
    47   43   53 1   
    48   45   46 1   
    49   45   51 1   
    50   45   52 1   
    51   46   47 1   
    52   46   48 1   
    53   53   54 1   
    54   53   57 1   
    55   54   55 1   
    56   54   58 1   
    57   54   59 1   
    58   55   56 2   
    59   55   60 1   
    60   60   61 1   
    61   60   68 1   
    62   61   62 1   
    63   61   64 1   
    64   61   69 1   
    65   62   63 2   
    66   62   72 1   
    67   64   65 1   
    68   64   70 1   
    69   64   71 1   
    70   65   66 1   
    71   65   67 1   
    72   72   73 1   
    73   72   76 1   
    74   73   74 1   
    75   73   77 1   
    76   73   78 1   
    77   74   75 2   
    78   74   79 1   
    79   79   80 1   
    80   79   86 1   
    81   80   81 1   
    82   80   83 1   
    83   80   87 1   
    84   81   82 2   
    85   81   93 1   
    86   83   84 1   
    87   83   85 1   
    88   83   88 1   
    89   84   90 1   
    90   84   91 1   
    91   84   92 1   
    92   85   89 1   
    93   93   94 1   
    94   93  101 1   
    95   94   95 1   
    96   94   97 1   
    97   94  102 1   
    98   95   96 2   
    99   95  112 1   
   100   97   98 1   
   101   97   99 1   
   102   97  103 1   
   103   98  100 1   
   104   98  104 1   
   105   98  105 1   
   106   99  106 1   
   107   99  107 1   
   108   99  108 1   
   109  100  109 1   
   110  100  110 1   
   111  100  111 1   
   112  112  113 1   
   113  112  119 1   
   114  113  114 1   
   115  113  116 1   
   116  113  120 1   
   117  114  115 2   
   118  114  126 1   
   119  116  117 1   
   120  116  118 1   
   121  116  121 1   
   122  117  123 1   
   123  117  124 1   
   124  117  125 1   
   125  118  122 1   
   126  126  127 1   
   127  126  133 1   
   128  127  128 1   
   129  127  130 1   
   130  127  134 1   
   131  128  129 2   
   132  128  140 1   
   133  130  131 1   
   134  130  132 1   
   135  130  135 1   
   136  131  137 1   
   137  131  138 1   
   138  131  139 1   
   139  132  136 1   
   140  140  141 1   
   141  140  149 1   
   142  141  142 1   
   143  141  144 1   
   144  141  150 1   
   145  142  143 2   
   146  142  162 1   
   147  144  145 1   
   148  144  151 1   
   149  144  152 1   
   150  145  146 1   
   151  145  153 1   
   152  145  154 1   
   153  146  147 1   
   154  146  155 1   
   155  146  156 1   
   156  147  148 1   
   157  147  157 1   
   158  147  158 1   
   159  148  159 1   
   160  148  160 1   
   161  148  161 1   
   162  162  163 1   
   163  162  171 1   
   164  163  164 1   
   165  163  166 1   
   166  163  172 1   
   167  164  165 2   
   168  164  177 1   
   169  166  167 1   
   170  166  173 1   
   171  166  174 1   
   172  167  168 1   
   173  167  175 1   
   174  167  176 1   
   175  168  169 1   
   176  168  170 1   
   177  177  178 1   
   178  177  182 1   
   179  178  179 1   
   180  178  180 1   
   181  178  181 1   
   182  184  185 1   
   183  184  186 1   
   184  187  188 1   
   185  187  189 1   
@<TRIPOS>SUBSTRUCTURE
     1 MOL         1 TEMP              0 ****  ****    0 ROOT
