@<TRIPOS>MOLECULE
MOL
  175   173     1     0     0
SMALL
resp


@<TRIPOS>ATOM
      1 C1          0.9110    5.4620    4.9970 c3        1 MOL     -0.350819
      2 C2          0.2550    4.8790    3.7320 c         1 MOL      0.710760
      3 O1          0.7870    4.8210    2.5910 o         1 MOL     -0.595587
      4 H1          0.5170    4.9540    5.8780 hc        1 MOL      0.088300
      5 H2          1.9910    5.3170    4.9470 hc        1 MOL      0.088300
      6 H3          0.6900    6.5280    5.0650 hc        1 MOL      0.088300
      7 N1         -0.9680    4.3640    3.8750 n         1 MOL     -0.632789
      8 C3         -1.6920    3.7260    2.7820 c3        1 MOL      0.229364
      9 C4         -1.8080    4.7520    1.6160 c         1 MOL      0.409600
     10 O2         -2.4450    5.8020    1.6700 o         1 MOL     -0.583233
     11 C5         -3.1050    3.2330    3.2440 c3        1 MOL     -0.529319
     12 C6         -4.0400    2.5630    2.1330 c         1 MOL      0.861004
     13 O3         -3.5790    2.3300    0.9860 o         1 MOL     -0.699232
     14 O4         -5.1560    2.1980    2.5730 o         1 MOL     -0.699232
     15 H4         -1.4370    4.4280    4.7630 hn        1 MOL      0.327486
     16 H5         -1.1050    2.8420    2.5200 h1        1 MOL      0.099999
     17 H6         -3.6180    4.1650    3.4890 hc        1 MOL      0.114422
     18 H7         -2.8960    2.6570    4.1360 hc        1 MOL      0.114422
     19 N2         -1.3040    4.4440    0.4310 n         1 MOL      0.000057
     20 C7         -1.3410    5.2670   -0.7670 c3        1 MOL     -0.004424
     21 C8         -2.5440    5.0130   -1.6920 c         1 MOL      0.539683
     22 O5         -2.8840    5.9170   -2.5130 o         1 MOL     -0.612055
     23 C9          0.0150    5.1050   -1.5100 c3        1 MOL     -0.182764
     24 H8         -0.8140    3.5650    0.4020 hn        1 MOL      0.160287
     25 H9         -1.3890    6.2750   -0.3610 h1        1 MOL      0.062375
     26 H10         0.2170    4.0460   -1.6710 hc        1 MOL      0.049269
     27 H11         0.0510    5.5600   -2.4990 hc        1 MOL      0.049269
     28 H12         0.8510    5.4510   -0.8950 hc        1 MOL      0.049269
     29 N3         -3.3170    3.9080   -1.6490 n         1 MOL     -0.389299
     30 C10        -4.3640    3.6020   -2.6770 c3        1 MOL      0.135061
     31 C11        -5.6040    2.7440   -2.1990 c         1 MOL      0.376674
     32 O6         -6.4320    2.5020   -3.1050 o         1 MOL     -0.531844
     33 C12        -3.6550    2.8140   -3.7720 c3        1 MOL     -0.177208
     34 C13        -3.1540    1.4330   -3.3610 c         1 MOL      0.731363
     35 O7         -3.1210    1.1300   -2.1340 o         1 MOL     -0.706433
     36 O8         -2.9290    0.5640   -4.2440 o         1 MOL     -0.706433
     37 H13        -3.0280    3.2240   -0.9750 hn        1 MOL      0.144313
     38 H14        -4.8370    4.5020   -3.0450 h1        1 MOL      0.085694
     39 H15        -2.8770    3.4800   -4.1380 hc        1 MOL      0.041197
     40 H16        -4.3900    2.6620   -4.5620 hc        1 MOL      0.041197
     41 N4         -5.7780    2.3390   -0.9330 n         1 MOL     -0.242623
     42 C14        -6.9790    1.6430   -0.4940 c3        1 MOL     -0.055540
     43 C15        -7.2390    0.2660   -1.0390 c         1 MOL      0.351267
     44 O9         -8.3450   -0.3230   -0.9300 o         1 MOL     -0.569571
     45 H17        -5.1160    2.5430   -0.2000 hn        1 MOL      0.175548
     46 H18        -7.8700    2.2620   -0.6110 h1        1 MOL      0.080750
     47 H19        -6.8960    1.5640    0.5860 h1        1 MOL      0.080750
     48 N5         -6.3140   -0.3060   -1.7890 n         1 MOL     -0.024081
     49 C16        -6.3790   -1.6310   -2.4540 c3        1 MOL     -0.130545
     50 C17        -6.6790   -2.7590   -1.5090 c         1 MOL      0.617641
     51 O10        -7.3820   -3.7290   -1.8930 o         1 MOL     -0.584493
     52 C18        -5.0460   -1.8960   -3.1310 c3        1 MOL     -0.265740
     53 C19        -3.7330   -2.0390   -2.3530 c         1 MOL      0.576301
     54 N6         -2.7310   -2.5940   -2.9280 n         1 MOL     -0.564691
     55 O11        -3.5180   -1.7630   -1.1880 o         1 MOL     -0.709709
     56 H20        -5.3760    0.0610   -1.7210 hn        1 MOL      0.166727
     57 H21        -7.1900   -1.5960   -3.1870 h1        1 MOL      0.112516
     58 H22        -4.8880   -1.1290   -3.8910 hc        1 MOL      0.108700
     59 H23        -5.1780   -2.8480   -3.6480 hc        1 MOL      0.108700
     60 H24        -2.6970   -2.7600   -3.9210 hn        1 MOL      0.320880
     61 H25        -1.8890   -2.5390   -2.3720 hn        1 MOL      0.320880
     62 N7         -6.3260   -2.6000   -0.2070 n         1 MOL     -0.315674
     63 C20        -6.3660   -3.6410    0.8920 c3        1 MOL     -0.119095
     64 C21        -5.1480   -4.4760    1.1950 c         1 MOL      0.617164
     65 O12        -5.4050   -5.5210    1.8710 o         1 MOL     -0.619300
     66 H26        -5.9290   -1.7140    0.0770 hn        1 MOL      0.226875
     67 H27        -7.1970   -4.3330    0.8270 h1        1 MOL      0.075732
     68 H28        -6.4670   -3.1030    1.8390 h1        1 MOL      0.075732
     69 N8         -3.9620   -3.9830    0.8750 n         1 MOL     -0.377487
     70 C22        -2.6720   -4.6410    1.3790 c3        1 MOL     -0.123510
     71 C23        -1.6720   -3.4630    1.7330 c         1 MOL      0.577875
     72 O13        -1.9490   -2.2660    1.4270 o         1 MOL     -0.598299
     73 C24        -1.9850   -5.5040    0.2820 c3        1 MOL      0.687304
     74 C25        -2.4500   -6.9310    0.4120 c3        1 MOL     -0.442850
     75 O14        -2.1390   -5.0210   -1.0360 oh        1 MOL     -0.739289
     76 H29        -3.8730   -3.1940    0.2600 hn        1 MOL      0.298275
     77 H30        -2.7320   -5.2160    2.3040 h1        1 MOL      0.071196
     78 H31        -0.9070   -5.5990    0.4210 h1        1 MOL     -0.065325
     79 H32        -1.5310   -4.3020   -1.2360 ho        1 MOL      0.457432
     80 H33        -2.0300   -7.3840    1.3120 hc        1 MOL      0.095688
     81 H34        -3.5290   -7.0150    0.3550 hc        1 MOL      0.095688
     82 H35        -2.1110   -7.5200   -0.4400 hc        1 MOL      0.095688
     83 N9         -0.5430   -3.8410    2.3520 n         1 MOL     -0.621310
     84 C26         0.6980   -3.0360    2.4000 c3        1 MOL     -0.066713
     85 C27         1.5490   -3.3330    1.1430 c         1 MOL      0.312270
     86 O15         1.8670   -4.4880    0.7480 o         1 MOL     -0.566972
     87 C28         1.4930   -3.1460    3.7580 c3        1 MOL      0.368840
     88 C29         0.4930   -3.2420    4.9090 c3        1 MOL     -0.117404
     89 C30         2.4430   -1.9460    3.9570 c3        1 MOL     -0.373934
     90 C31         1.2110   -3.6860    6.1520 c3        1 MOL     -0.040007
     91 H36        -0.4150   -4.8040    2.6390 hn        1 MOL      0.334126
     92 H37         0.3710   -2.0080    2.3000 h1        1 MOL      0.121965
     93 H38         2.1020   -4.0490    3.7860 hc        1 MOL     -0.025812
     94 H39        -0.2900   -3.9990    4.8440 hc        1 MOL      0.043517
     95 H40         0.1900   -2.2130    5.1360 hc        1 MOL      0.043517
     96 H41         3.2200   -2.2470    4.6700 hc        1 MOL      0.082585
     97 H42         3.0900   -1.7650    3.0920 hc        1 MOL      0.082585
     98 H43         1.9290   -1.0180    4.1820 hc        1 MOL      0.082585
     99 H44         1.7010   -4.6420    5.9550 hc        1 MOL     -0.001900
    100 H45         2.0290   -3.0040    6.3750 hc        1 MOL     -0.001900
    101 H46         0.5210   -3.7880    6.9820 hc        1 MOL     -0.001900
    102 N10         1.8660   -2.2910    0.4630 n         1 MOL     -0.082172
    103 C32         2.6420   -2.2650   -0.7780 c3        1 MOL      0.094834
    104 C33         4.0350   -1.6880   -0.5890 c         1 MOL      0.361595
    105 O16         4.3060   -0.9580    0.3460 o         1 MOL     -0.371929
    106 C34         1.7570   -1.5570   -1.7890 c3        1 MOL     -0.393673
    107 C35         0.2830   -1.9230   -1.7620 c         1 MOL      0.907011
    108 O17        -0.5980   -1.0670   -1.4490 o         1 MOL     -0.740331
    109 O18         0.0120   -3.0820   -2.0970 o         1 MOL     -0.740331
    110 H47         1.6260   -1.3960    0.8480 hn        1 MOL      0.183133
    111 H48         2.7900   -3.2860   -1.1170 h1        1 MOL      0.083313
    112 H49         2.0980   -1.8450   -2.7810 hc        1 MOL      0.096258
    113 H50         1.9420   -0.4930   -1.7030 hc        1 MOL      0.096258
    114 N11         4.8850   -2.0010   -1.4830 n         1 MOL     -0.545812
    115 C36         6.2130   -1.4710   -1.4740 c3        1 MOL      0.470177
    116 C37         6.4000    0.0670   -1.3390 c         1 MOL      0.258304
    117 O19         7.2990    0.4390   -0.5910 o         1 MOL     -0.486114
    118 C38         7.0510   -2.1230   -2.5480 c3        1 MOL     -0.318371
    119 C39         8.6010   -2.0250   -2.4290 ca        1 MOL      0.181367
    120 C40         9.4320   -1.2050   -3.2660 ca        1 MOL     -0.251451
    121 C41         9.2160   -2.6780   -1.3260 ca        1 MOL     -0.251451
    122 C42        10.7620   -0.9250   -2.9340 ca        1 MOL     -0.041508
    123 C43        10.6060   -2.5740   -1.0830 ca        1 MOL     -0.041508
    124 C44        11.4010   -1.6190   -1.8440 ca        1 MOL     -0.170957
    125 H51         4.6930   -2.6940   -2.1970 hn        1 MOL      0.297430
    126 H52         6.5380   -1.8160   -0.4880 h1        1 MOL      0.017726
    127 H53         6.7880   -1.6820   -3.5090 hc        1 MOL      0.080303
    128 H54         6.8750   -3.1900   -2.6550 hc        1 MOL      0.080303
    129 H55         8.9230   -0.6050   -4.0060 ha        1 MOL      0.139030
    130 H56         8.6930   -3.3890   -0.7040 ha        1 MOL      0.139030
    131 H57        11.3080   -0.2160   -3.5270 ha        1 MOL      0.100162
    132 H58        11.0610   -3.2610   -0.3810 ha        1 MOL      0.100162
    133 H59        12.4470   -1.5210   -1.6020 ha        1 MOL      0.114116
    134 N12         5.6350    0.8950   -2.0570 n         1 MOL      0.008880
    135 C45         5.7360    2.3490   -1.8760 c3        1 MOL     -0.018231
    136 C46         5.3830    2.8030   -0.4380 c         1 MOL      0.264117
    137 O20         5.7320    3.9130    0.0050 o         1 MOL     -0.497022
    138 C47         4.8500    2.8950   -3.0670 c3        1 MOL     -0.001758
    139 C48         4.8480    1.8320   -4.0940 c3        1 MOL      0.041478
    140 C49         4.8900    0.5030   -3.2860 c3        1 MOL     -0.089768
    141 H60         6.7450    2.6670   -2.1330 h1        1 MOL      0.074370
    142 H61         3.8470    2.9570   -2.6290 hc        1 MOL      0.033296
    143 H62         5.1670    3.8680   -3.4440 hc        1 MOL      0.033296
    144 H63         3.9910    1.8930   -4.7670 hc        1 MOL      0.003683
    145 H64         5.7790    1.9420   -4.6460 hc        1 MOL      0.003683
    146 H65         3.8540    0.2330   -3.1310 h1        1 MOL      0.047699
    147 H66         5.3740   -0.2530   -3.8970 h1        1 MOL      0.047699
    148 N13         4.7480    1.9620    0.4190 n         1 MOL     -0.057795
    149 C50         4.2580    2.2570    1.7290 c3        1 MOL     -0.077776
    150 C51         5.1920    1.6730    2.7600 c         1 MOL      0.508461
    151 O21         5.4150    2.3050    3.8030 o         1 MOL     -0.560973
    152 C52         2.8170    1.6880    1.8500 c3        1 MOL      0.083064
    153 C53         1.9330    2.0800    0.6120 c3        1 MOL     -0.078767
    154 C54         0.6160    1.2890    0.6290 c         1 MOL      0.573373
    155 O22        -0.3430    1.7460   -0.0110 o         1 MOL     -0.698561
    156 O23         0.5490    0.2050    1.2470 o         1 MOL     -0.698561
    157 H67         4.3540    1.1910   -0.0970 hn        1 MOL      0.098246
    158 H68         4.3240    3.3210    1.9380 h1        1 MOL      0.094044
    159 H69         2.3700    2.1740    2.7240 hc        1 MOL     -0.013494
    160 H70         2.9110    0.6320    2.1090 hc        1 MOL     -0.013494
    161 H71         2.4150    1.8390   -0.3400 hc        1 MOL      0.045140
    162 H72         1.7440    3.1500    0.6250 hc        1 MOL      0.045140
    163 N14         5.7980    0.4980    2.4790 n         1 MOL     -0.209026
    164 C55         6.8500   -0.1380    3.3370 c3        1 MOL     -0.237482
    165 H73         6.5150   -0.1500    4.3740 h1        1 MOL      0.093540
    166 H74         7.0250   -1.1600    3.0010 h1        1 MOL      0.093540
    167 H75         7.7760    0.4340    3.2610 h1        1 MOL      0.093540
    168 H76         5.5150   -0.0770    1.6950 hn        1 MOL      0.169154
    169 Ca1        -2.2450    0.0440    0.1130 Ca        1 MOL      1.735788
    170 O24        -4.9480   -0.3820    1.1690 oh        1 MOL     -0.781240
    171 H77        -5.4630    0.4240    1.2580 ho        1 MOL      0.390109
    172 H78        -4.7340   -0.6260    2.0700 ho        1 MOL      0.390109
    173 O25        -2.2790    0.3990    2.7290 oh        1 MOL     -0.781240
    174 H79        -2.8990    0.0010    3.3320 ho        1 MOL      0.390109
    175 H80        -1.5030    0.5750    3.2640 ho        1 MOL      0.390109
@<TRIPOS>BOND
     1    1    2 1   
     2    1    4 1   
     3    1    5 1   
     4    1    6 1   
     5    2    3 2   
     6    2    7 1   
     7    7    8 1   
     8    7   15 1   
     9    8    9 1   
    10    8   11 1   
    11    8   16 1   
    12    9   10 2   
    13    9   19 1   
    14   11   12 1   
    15   11   17 1   
    16   11   18 1   
    17   12   13 1   
    18   12   14 1   
    19   19   20 1   
    20   19   24 1   
    21   20   21 1   
    22   20   23 1   
    23   20   25 1   
    24   21   22 2   
    25   21   29 1   
    26   23   26 1   
    27   23   27 1   
    28   23   28 1   
    29   29   30 1   
    30   29   37 1   
    31   30   31 1   
    32   30   33 1   
    33   30   38 1   
    34   31   32 2   
    35   31   41 1   
    36   33   34 1   
    37   33   39 1   
    38   33   40 1   
    39   34   35 1   
    40   34   36 1   
    41   41   42 1   
    42   41   45 1   
    43   42   43 1   
    44   42   46 1   
    45   42   47 1   
    46   43   44 2   
    47   43   48 1   
    48   48   49 1   
    49   48   56 1   
    50   49   50 1   
    51   49   52 1   
    52   49   57 1   
    53   50   51 2   
    54   50   62 1   
    55   52   53 1   
    56   52   58 1   
    57   52   59 1   
    58   53   54 1   
    59   53   55 2   
    60   54   60 1   
    61   54   61 1   
    62   62   63 1   
    63   62   66 1   
    64   63   64 1   
    65   63   67 1   
    66   63   68 1   
    67   64   65 2   
    68   64   69 1   
    69   69   70 1   
    70   69   76 1   
    71   70   71 1   
    72   70   73 1   
    73   70   77 1   
    74   71   72 2   
    75   71   83 1   
    76   73   74 1   
    77   73   75 1   
    78   73   78 1   
    79   74   80 1   
    80   74   81 1   
    81   74   82 1   
    82   75   79 1   
    83   83   84 1   
    84   83   91 1   
    85   84   85 1   
    86   84   87 1   
    87   84   92 1   
    88   85   86 2   
    89   85  102 1   
    90   87   88 1   
    91   87   89 1   
    92   87   93 1   
    93   88   90 1   
    94   88   94 1   
    95   88   95 1   
    96   89   96 1   
    97   89   97 1   
    98   89   98 1   
    99   90   99 1   
   100   90  100 1   
   101   90  101 1   
   102  102  103 1   
   103  102  110 1   
   104  103  104 1   
   105  103  106 1   
   106  103  111 1   
   107  104  105 2   
   108  104  114 1   
   109  106  107 1   
   110  106  112 1   
   111  106  113 1   
   112  107  108 1   
   113  107  109 1   
   114  114  115 1   
   115  114  125 1   
   116  115  116 1   
   117  115  118 1   
   118  115  126 1   
   119  116  117 2   
   120  116  134 1   
   121  118  119 1   
   122  118  127 1   
   123  118  128 1   
   124  119  120 ar  
   125  119  121 ar  
   126  120  122 ar  
   127  120  129 1   
   128  121  123 ar  
   129  121  130 1   
   130  122  124 ar  
   131  122  131 1   
   132  123  124 ar  
   133  123  132 1   
   134  124  133 1   
   135  134  135 1   
   136  134  140 1   
   137  135  136 1   
   138  135  138 1   
   139  135  141 1   
   140  136  137 2   
   141  136  148 1   
   142  138  139 1   
   143  138  142 1   
   144  138  143 1   
   145  139  140 1   
   146  139  144 1   
   147  139  145 1   
   148  140  146 1   
   149  140  147 1   
   150  148  149 1   
   151  148  157 1   
   152  149  150 1   
   153  149  152 1   
   154  149  158 1   
   155  150  151 2   
   156  150  163 1   
   157  152  153 1   
   158  152  159 1   
   159  152  160 1   
   160  153  154 1   
   161  153  161 1   
   162  153  162 1   
   163  154  155 1   
   164  154  156 1   
   165  163  164 1   
   166  163  168 1   
   167  164  165 1   
   168  164  166 1   
   169  164  167 1   
   170  170  171 1   
   171  170  172 1   
   172  173  174 1   
   173  173  175 1   
@<TRIPOS>SUBSTRUCTURE
     1 MOL         1 TEMP              0 ****  ****    0 ROOT
