@<TRIPOS>MOLECULE
MOL
  175   173     1     0     0
SMALL
resp


@<TRIPOS>ATOM
      1 C1          0.4660    4.5730    5.1380 c3        1 MOL     -0.337285
      2 C2         -0.1990    4.4990    3.7500 c         1 MOL      0.649397
      3 O1          0.4040    4.7520    2.6560 o         1 MOL     -0.563106
      4 H1          1.5470    4.4900    5.0280 hc        1 MOL      0.084861
      5 H2          0.2220    5.5250    5.6090 hc        1 MOL      0.084861
      6 H3          0.1010    3.7560    5.7610 hc        1 MOL      0.084861
      7 N1         -1.4430    4.0070    3.7070 n         1 MOL     -0.564002
      8 C3         -2.1010    3.4680    2.4550 c3        1 MOL      0.055093
      9 C4         -2.3490    4.6050    1.3570 c         1 MOL      0.632109
     10 O2         -2.7260    5.7120    1.7170 o         1 MOL     -0.595766
     11 C5         -3.4610    2.9030    2.8500 c3        1 MOL     -0.221284
     12 C6         -4.2720    2.5800    1.5710 c         1 MOL      0.542123
     13 O3         -5.4040    3.1150    1.4450 o         1 MOL     -0.569389
     14 O4         -3.8230    1.7190    0.7960 o         1 MOL     -0.569389
     15 H4         -1.9030    3.9160    4.6010 hn        1 MOL      0.312322
     16 H5         -1.5040    2.6410    2.0570 h1        1 MOL      0.148112
     17 H6         -3.9990    3.5610    3.5200 hc        1 MOL      0.052562
     18 H7         -3.2280    1.9960    3.4020 hc        1 MOL      0.052562
     19 N2         -2.2240    4.3040    0.0860 n         1 MOL     -0.506561
     20 C7         -2.4170    5.2170   -1.0090 c3        1 MOL      0.509397
     21 C8         -3.6490    4.8860   -1.8400 c         1 MOL      0.302532
     22 O5         -4.1390    5.8590   -2.4350 o         1 MOL     -0.568891
     23 C9         -1.1080    5.2140   -1.7840 c3        1 MOL     -0.386323
     24 H8         -1.9340    3.3740   -0.1870 hn        1 MOL      0.227524
     25 H9         -2.4830    6.2430   -0.6530 h1        1 MOL     -0.024527
     26 H10        -1.3010    5.9270   -2.5870 hc        1 MOL      0.085775
     27 H11        -0.2560    5.4730   -1.1660 hc        1 MOL      0.085775
     28 H12        -0.9410    4.2900   -2.3390 hc        1 MOL      0.085775
     29 N3         -4.1080    3.6120   -1.8990 n         1 MOL     -0.142722
     30 C10        -5.0780    3.1580   -2.8940 c3        1 MOL      0.115802
     31 C11        -6.1320    2.0970   -2.4660 c         1 MOL      0.266105
     32 O6         -6.9590    1.5970   -3.2770 o         1 MOL     -0.525174
     33 C12        -4.2510    2.5610   -4.0150 c3        1 MOL     -0.269590
     34 C13        -3.2570    1.4670   -3.5740 c         1 MOL      0.750728
     35 O7         -3.2060    1.0590   -2.3810 o         1 MOL     -0.688412
     36 O8         -2.4330    1.0860   -4.4270 o         1 MOL     -0.688412
     37 H13        -3.5750    2.8790   -1.4590 hn        1 MOL      0.180930
     38 H14        -5.5030    4.0440   -3.3690 h1        1 MOL      0.077175
     39 H15        -3.6560    3.3990   -4.3780 hc        1 MOL      0.058059
     40 H16        -4.9790    2.1770   -4.7260 hc        1 MOL      0.058059
     41 N4         -6.0380    1.6360   -1.1860 n         1 MOL      0.090259
     42 C14        -7.1270    0.9120   -0.5150 c3        1 MOL     -0.056401
     43 C15        -7.2830   -0.5680   -0.9210 c         1 MOL      0.483589
     44 O9         -8.3340   -1.1260   -0.6170 o         1 MOL     -0.592586
     45 H17        -5.2570    1.9280   -0.6200 hn        1 MOL     -0.205944
     46 H18        -8.1080    1.3930   -0.5210 h1        1 MOL      0.066775
     47 H19        -6.8880    0.8190    0.5470 h1        1 MOL      0.066775
     48 N5         -6.2960   -1.1640   -1.6230 n         1 MOL     -0.311548
     49 C16        -6.1530   -2.5700   -1.9740 c3        1 MOL     -0.060132
     50 C17        -5.9610   -3.5260   -0.8180 c         1 MOL      0.400488
     51 O10        -5.4950   -4.6970   -0.9890 o         1 MOL     -0.526360
     52 C18        -5.0150   -2.6210   -3.0050 c3        1 MOL     -0.126459
     53 C19        -3.6580   -2.3850   -2.4350 c         1 MOL      0.378699
     54 N6         -2.5650   -2.8270   -2.9830 n         1 MOL     -0.419743
     55 O11        -3.5030   -1.8760   -1.3080 o         1 MOL     -0.558079
     56 H20        -5.4490   -0.6290   -1.7140 hn        1 MOL      0.285894
     57 H21        -7.0390   -2.9210   -2.5060 h1        1 MOL      0.125397
     58 H22        -5.2850   -2.0510   -3.8950 hc        1 MOL      0.076440
     59 H23        -4.9840   -3.6770   -3.2770 hc        1 MOL      0.076440
     60 H24        -2.6420   -3.3860   -3.8310 hn        1 MOL      0.294721
     61 H25        -1.6830   -2.5440   -2.6080 hn        1 MOL      0.294721
     62 N7         -6.1540   -3.1300    0.4290 n         1 MOL     -0.088892
     63 C20        -6.0820   -3.9490    1.6700 c3        1 MOL     -0.455204
     64 C21        -4.6880   -4.4880    2.0890 c         1 MOL      0.690844
     65 O12        -4.5970   -5.3150    2.9810 o         1 MOL     -0.584596
     66 H26        -6.4860   -2.1820    0.5300 hn        1 MOL      0.226332
     67 H27        -6.7190   -4.8250    1.5490 h1        1 MOL      0.171074
     68 H28        -6.3580   -3.2370    2.4510 h1        1 MOL      0.171074
     69 N8         -3.6290   -3.9800    1.4340 n         1 MOL     -0.319620
     70 C22        -2.2510   -4.5230    1.5580 c3        1 MOL     -0.127916
     71 C23        -1.3430   -3.2970    1.5180 c         1 MOL      0.533592
     72 O13        -1.5500   -2.2940    0.8810 o         1 MOL     -0.487758
     73 C24        -1.8680   -5.5360    0.5140 c3        1 MOL      0.616148
     74 C25        -2.6990   -6.7810    0.6630 c3        1 MOL     -0.501978
     75 O14        -2.0360   -4.9980   -0.8370 oh        1 MOL     -0.671636
     76 H29        -3.8260   -3.2990    0.7050 hn        1 MOL      0.110640
     77 H30        -2.1670   -5.0550    2.5120 h1        1 MOL      0.067914
     78 H31        -0.8530   -5.8640    0.7260 h1        1 MOL     -0.014588
     79 H32        -2.9150   -4.6320   -0.9640 ho        1 MOL      0.392709
     80 H33        -2.7460   -7.0070    1.7240 hc        1 MOL      0.112108
     81 H34        -3.7130   -6.6430    0.2960 hc        1 MOL      0.112108
     82 H35        -2.1880   -7.6180    0.1890 hc        1 MOL      0.112108
     83 N9         -0.3550   -3.3300    2.4320 n         1 MOL     -0.542383
     84 C26         0.7610   -2.3730    2.3700 c3        1 MOL      0.023766
     85 C27         1.5350   -2.7600    1.0220 c         1 MOL      0.462368
     86 O15         1.9480   -3.9150    0.8240 o         1 MOL     -0.604187
     87 C28         1.5600   -2.2990    3.6650 c3        1 MOL      0.073116
     88 C29         0.7180   -1.4580    4.6120 c3        1 MOL      0.087780
     89 C30         2.9470   -1.6240    3.4400 c3        1 MOL     -0.137465
     90 C31         1.2410   -1.2280    6.0280 c3        1 MOL     -0.241945
     91 H36        -0.2670   -4.1360    3.0370 hn        1 MOL      0.296209
     92 H37         0.2560   -1.4360    2.1420 h1        1 MOL     -0.015014
     93 H38         1.7060   -3.3140    4.0360 hc        1 MOL      0.015533
     94 H39        -0.2820   -1.8900    4.6930 hc        1 MOL     -0.005869
     95 H40         0.5530   -0.4610    4.1830 hc        1 MOL     -0.005869
     96 H41         2.8240   -0.5950    3.0950 hc        1 MOL      0.025406
     97 H42         3.5350   -1.5730    4.3600 hc        1 MOL      0.025406
     98 H43         3.5870   -2.1660    2.7450 hc        1 MOL      0.025406
     99 H44         1.4000   -2.1750    6.5360 hc        1 MOL      0.053439
    100 H45         2.1910   -0.6890    6.0020 hc        1 MOL      0.053439
    101 H46         0.5400   -0.5810    6.5780 hc        1 MOL      0.053439
    102 N10         1.7870   -1.7870    0.2190 n         1 MOL     -0.001975
    103 C32         2.6540   -1.8680   -0.9810 c3        1 MOL     -0.022882
    104 C33         4.0820   -1.4470   -0.6350 c         1 MOL      0.279084
    105 O16         4.2560   -0.7090    0.3020 o         1 MOL     -0.188208
    106 C34         2.0080   -0.8820   -2.0120 c3        1 MOL     -0.147468
    107 C35         0.5550   -1.2350   -2.3780 c         1 MOL      0.675862
    108 O17        -0.3180   -0.9740   -1.5830 o         1 MOL     -0.691651
    109 O18         0.3130   -1.9740   -3.3790 o         1 MOL     -0.691651
    110 H47         1.5450   -0.8880    0.6080 hn        1 MOL      0.172859
    111 H48         2.7340   -2.8750   -1.3840 h1        1 MOL      0.086350
    112 H49         2.5490   -0.7530   -2.9460 hc        1 MOL      0.039840
    113 H50         1.9940    0.0950   -1.5240 hc        1 MOL      0.039840
    114 N11         5.0930   -1.8610   -1.4250 n         1 MOL     -0.526083
    115 C36         6.4830   -1.4700   -1.2150 c3        1 MOL      0.310682
    116 C37         6.7810    0.0310   -0.9800 c         1 MOL      0.316895
    117 O19         7.4910    0.3400    0.0010 o         1 MOL     -0.478370
    118 C38         7.3140   -2.0770   -2.3500 c3        1 MOL     -0.291025
    119 C39         8.8170   -2.0180   -2.1290 ca        1 MOL      0.239590
    120 C40         9.3650   -2.7480   -1.0480 ca        1 MOL     -0.299775
    121 C41         9.6630   -1.2950   -3.0320 ca        1 MOL     -0.299775
    122 C42        10.7980   -2.7900   -0.8700 ca        1 MOL      0.028725
    123 C43        11.0490   -1.3720   -2.8120 ca        1 MOL      0.028725
    124 C44        11.6530   -2.1490   -1.7990 ca        1 MOL     -0.277756
    125 H51         4.8740   -2.2330   -2.3410 hn        1 MOL      0.311141
    126 H52         6.8110   -1.9420   -0.2830 h1        1 MOL      0.055958
    127 H53         7.1370   -1.5170   -3.2640 hc        1 MOL      0.085581
    128 H54         7.0240   -3.1020   -2.5910 hc        1 MOL      0.085581
    129 H55         8.7590   -3.3690   -0.4070 ha        1 MOL      0.153317
    130 H56         9.3300   -0.7450   -3.8960 ha        1 MOL      0.153317
    131 H57        11.2760   -3.3840   -0.0930 ha        1 MOL      0.079707
    132 H58        11.6370   -0.7760   -3.4930 ha        1 MOL      0.079707
    133 H59        12.7230   -2.1780   -1.6490 ha        1 MOL      0.143872
    134 N12         6.2900    1.0150   -1.7600 n         1 MOL     -0.091998
    135 C45         6.3820    2.5000   -1.4780 c3        1 MOL     -0.065265
    136 C46         5.8890    2.8320   -0.0510 c         1 MOL      0.364928
    137 O20         6.4960    3.6020    0.6450 o         1 MOL     -0.505013
    138 C47         5.4770    3.1360   -2.5570 c3        1 MOL      0.052592
    139 C48         5.7410    2.2110   -3.7730 c3        1 MOL     -0.177992
    140 C49         5.4900    0.8770   -3.0010 c3        1 MOL     -0.008794
    141 H60         7.4130    2.8230   -1.5730 h1        1 MOL      0.088605
    142 H61         4.4250    3.1780   -2.2940 hc        1 MOL      0.032210
    143 H62         5.7320    4.1680   -2.7650 hc        1 MOL      0.032210
    144 H63         4.9790    2.3860   -4.5270 hc        1 MOL      0.071519
    145 H64         6.7280    2.1760   -4.2440 hc        1 MOL      0.071519
    146 H65         4.4570    0.7110   -2.7190 h1        1 MOL      0.039178
    147 H66         5.7610   -0.0230   -3.5580 h1        1 MOL      0.039178
    148 N13         4.7890    2.2500    0.3810 n         1 MOL     -0.025958
    149 C50         4.0740    2.4330    1.6230 c3        1 MOL     -0.167299
    150 C51         4.8610    1.7320    2.8190 c         1 MOL      0.416673
    151 O21         4.9520    2.2100    3.9360 o         1 MOL     -0.561175
    152 C52         2.6200    1.8860    1.4580 c3        1 MOL     -0.119234
    153 C53         1.6980    2.3190    0.2930 c3        1 MOL     -0.284351
    154 C54         0.3290    1.5650    0.3240 c         1 MOL      0.785723
    155 O22         0.0590    0.6070    1.0380 o         1 MOL     -0.786105
    156 O23        -0.5870    2.0570   -0.4340 o         1 MOL     -0.786105
    157 H67         4.2680    1.6100   -0.2000 hn        1 MOL      0.052412
    158 H68         4.0520    3.4910    1.8750 h1        1 MOL      0.122058
    159 H69         2.0470    2.0060    2.3760 hc        1 MOL      0.116324
    160 H70         2.7410    0.8270    1.2590 hc        1 MOL      0.116324
    161 H71         2.1210    2.0130   -0.6740 hc        1 MOL      0.125045
    162 H72         1.5450    3.3860    0.4110 hc        1 MOL      0.125045
    163 N14         5.5020    0.6200    2.4880 n         1 MOL      0.109902
    164 C55         6.3510   -0.2550    3.2930 c3        1 MOL     -0.181877
    165 H73         7.3950   -0.1000    3.0200 h1        1 MOL      0.064075
    166 H74         6.2140   -0.0250    4.3500 h1        1 MOL      0.064075
    167 H75         6.0800   -1.2950    3.1090 h1        1 MOL      0.064075
    168 H76         5.3580    0.3380    1.5280 hn        1 MOL     -0.081599
    169 Ca1        -2.2650    0.0070   -0.1740 Ca        1 MOL      1.711357
    170 O24        -4.7510   -0.7410    1.5150 oh        1 MOL     -0.808843
    171 H77        -4.6980    0.2200    1.4840 ho        1 MOL      0.393441
    172 H78        -5.1750   -0.9390    2.3430 ho        1 MOL      0.393441
    173 O25        -1.7550    0.1250    2.6340 oh        1 MOL     -0.808843
    174 H79        -0.8730    0.0970    2.2590 ho        1 MOL      0.393441
    175 H80        -1.7250   -0.4860    3.3730 ho        1 MOL      0.393441
@<TRIPOS>BOND
     1    1    2 1   
     2    1    4 1   
     3    1    5 1   
     4    1    6 1   
     5    2    3 2   
     6    2    7 1   
     7    7    8 1   
     8    7   15 1   
     9    8    9 1   
    10    8   11 1   
    11    8   16 1   
    12    9   10 2   
    13    9   19 1   
    14   11   12 1   
    15   11   17 1   
    16   11   18 1   
    17   12   13 1   
    18   12   14 1   
    19   19   20 1   
    20   19   24 1   
    21   20   21 1   
    22   20   23 1   
    23   20   25 1   
    24   21   22 2   
    25   21   29 1   
    26   23   26 1   
    27   23   27 1   
    28   23   28 1   
    29   29   30 1   
    30   29   37 1   
    31   30   31 1   
    32   30   33 1   
    33   30   38 1   
    34   31   32 2   
    35   31   41 1   
    36   33   34 1   
    37   33   39 1   
    38   33   40 1   
    39   34   35 1   
    40   34   36 1   
    41   41   42 1   
    42   41   45 1   
    43   42   43 1   
    44   42   46 1   
    45   42   47 1   
    46   43   44 2   
    47   43   48 1   
    48   48   49 1   
    49   48   56 1   
    50   49   50 1   
    51   49   52 1   
    52   49   57 1   
    53   50   51 2   
    54   50   62 1   
    55   52   53 1   
    56   52   58 1   
    57   52   59 1   
    58   53   54 1   
    59   53   55 2   
    60   54   60 1   
    61   54   61 1   
    62   62   63 1   
    63   62   66 1   
    64   63   64 1   
    65   63   67 1   
    66   63   68 1   
    67   64   65 2   
    68   64   69 1   
    69   69   70 1   
    70   69   76 1   
    71   70   71 1   
    72   70   73 1   
    73   70   77 1   
    74   71   72 2   
    75   71   83 1   
    76   73   74 1   
    77   73   75 1   
    78   73   78 1   
    79   74   80 1   
    80   74   81 1   
    81   74   82 1   
    82   75   79 1   
    83   83   84 1   
    84   83   91 1   
    85   84   85 1   
    86   84   87 1   
    87   84   92 1   
    88   85   86 2   
    89   85  102 1   
    90   87   88 1   
    91   87   89 1   
    92   87   93 1   
    93   88   90 1   
    94   88   94 1   
    95   88   95 1   
    96   89   96 1   
    97   89   97 1   
    98   89   98 1   
    99   90   99 1   
   100   90  100 1   
   101   90  101 1   
   102  102  103 1   
   103  102  110 1   
   104  103  104 1   
   105  103  106 1   
   106  103  111 1   
   107  104  105 2   
   108  104  114 1   
   109  106  107 1   
   110  106  112 1   
   111  106  113 1   
   112  107  108 1   
   113  107  109 1   
   114  114  115 1   
   115  114  125 1   
   116  115  116 1   
   117  115  118 1   
   118  115  126 1   
   119  116  117 2   
   120  116  134 1   
   121  118  119 1   
   122  118  127 1   
   123  118  128 1   
   124  119  120 ar  
   125  119  121 ar  
   126  120  122 ar  
   127  120  129 1   
   128  121  123 ar  
   129  121  130 1   
   130  122  124 ar  
   131  122  131 1   
   132  123  124 ar  
   133  123  132 1   
   134  124  133 1   
   135  134  135 1   
   136  134  140 1   
   137  135  136 1   
   138  135  138 1   
   139  135  141 1   
   140  136  137 2   
   141  136  148 1   
   142  138  139 1   
   143  138  142 1   
   144  138  143 1   
   145  139  140 1   
   146  139  144 1   
   147  139  145 1   
   148  140  146 1   
   149  140  147 1   
   150  148  149 1   
   151  148  157 1   
   152  149  150 1   
   153  149  152 1   
   154  149  158 1   
   155  150  151 2   
   156  150  163 1   
   157  152  153 1   
   158  152  159 1   
   159  152  160 1   
   160  153  154 1   
   161  153  161 1   
   162  153  162 1   
   163  154  155 1   
   164  154  156 1   
   165  163  164 1   
   166  163  168 1   
   167  164  165 1   
   168  164  166 1   
   169  164  167 1   
   170  170  171 1   
   171  170  172 1   
   172  173  174 1   
   173  173  175 1   
@<TRIPOS>SUBSTRUCTURE
     1 MOL         1 TEMP              0 ****  ****    0 ROOT
