@<TRIPOS>MOLECULE
MOL
  179   176     1     0     0
SMALL
resp


@<TRIPOS>ATOM
      1 C1          0.0410    4.7870    4.6310 c3        1 MOL     -0.351528
      2 C2         -0.1880    4.2250    3.2290 c         1 MOL      0.648777
      3 O1          0.5800    4.5180    2.2990 o         1 MOL     -0.563485
      4 H1         -0.2590    4.0460    5.3720 hc        1 MOL      0.083012
      5 H2          1.0970    5.0230    4.7610 hc        1 MOL      0.083012
      6 H3         -0.5530    5.6920    4.7620 hc        1 MOL      0.083012
      7 N1         -1.2630    3.4190    3.0620 n         1 MOL     -0.418449
      8 C3         -1.7550    2.7990    1.8900 c3        1 MOL      0.005130
      9 C4         -2.6830    3.7960    1.1330 c         1 MOL      0.334619
     10 O2         -3.8960    3.8790    1.3280 o         1 MOL     -0.469860
     11 C5         -2.4330    1.4450    2.2120 c3        1 MOL     -0.232715
     12 C6         -3.1410    0.7870    1.0360 c         1 MOL      0.817125
     13 O3         -2.6590    0.9420   -0.0880 o         1 MOL     -0.755852
     14 O4         -3.9990   -0.0800    1.3520 o         1 MOL     -0.755852
     15 H4         -1.9060    3.3350    3.8460 hn        1 MOL      0.276692
     16 H5         -0.8830    2.4890    1.3230 h1        1 MOL      0.122312
     17 H6         -3.1820    1.6390    2.9820 hc        1 MOL      0.055083
     18 H7         -1.7070    0.7810    2.6780 hc        1 MOL      0.055083
     19 N2         -2.1900    4.6520    0.2580 n         1 MOL     -0.264753
     20 C7         -3.0180    5.6760   -0.3430 c3        1 MOL      0.165053
     21 C8         -3.9670    5.1280   -1.3980 c         1 MOL      0.263112
     22 O5         -5.0340    5.7540   -1.7060 o         1 MOL     -0.544865
     23 C9         -2.2200    6.8320   -0.9510 c3        1 MOL     -0.113523
     24 C10        -1.1620    7.4350   -0.0430 c3        1 MOL     -0.061411
     25 C11        -1.5620    7.9100    1.3990 c3        1 MOL      0.053370
     26 C12        -0.3430    8.4350    2.2200 c3        1 MOL     -0.000203
     27 N3         -0.7970    9.0530    3.5480 n4        1 MOL     -0.412247
     28 H8         -1.2290    4.4850    0.0030 hn        1 MOL      0.288875
     29 H9         -3.6810    6.1630    0.3780 h1        1 MOL      0.053702
     30 H10        -2.8980    7.6230   -1.2630 hc        1 MOL      0.068224
     31 H11        -1.7080    6.4220   -1.8160 hc        1 MOL      0.068224
     32 H12        -0.6150    8.3050   -0.4040 hc        1 MOL      0.032366
     33 H13        -0.3920    6.7040    0.2300 hc        1 MOL      0.032366
     34 H14        -1.9920    7.1080    1.9950 hc        1 MOL      0.006517
     35 H15        -2.3550    8.6620    1.4180 hc        1 MOL      0.006517
     36 H16         0.1880    9.2150    1.6750 hx        1 MOL      0.099504
     37 H17         0.4140    7.6540    2.3220 hx        1 MOL      0.099504
     38 H18         0.0440    9.2960    4.0600 hn        1 MOL      0.338045
     39 H19        -1.3300    9.9070    3.4790 hn        1 MOL      0.338045
     40 H20        -1.1800    8.3580    4.1720 hn        1 MOL      0.338045
     41 N4         -3.6690    3.9960   -1.9840 n         1 MOL     -0.116803
     42 C13        -4.5640    3.2880   -2.9440 c3        1 MOL     -0.017974
     43 C14        -5.5660    2.3990   -2.1550 c         1 MOL      0.405191
     44 O6         -6.3210    1.6670   -2.7790 o         1 MOL     -0.544205
     45 C15        -3.7370    2.6100   -4.0310 c3        1 MOL     -0.136337
     46 C16        -2.8460    1.5130   -3.3970 c         1 MOL      0.600289
     47 O7         -3.2380    0.3130   -3.4060 o         1 MOL     -0.660165
     48 O8         -1.7270    1.8270   -2.9010 o         1 MOL     -0.660165
     49 H21        -2.8100    3.5180   -1.7300 hn        1 MOL      0.144808
     50 H22        -5.1480    4.0700   -3.4330 h1        1 MOL      0.118972
     51 H23        -3.0850    3.3940   -4.4210 hc        1 MOL      0.057822
     52 H24        -4.3960    2.2470   -4.8080 hc        1 MOL      0.057822
     53 N5         -5.6190    2.3800   -0.8110 n         1 MOL     -0.105122
     54 C17        -6.6360    1.7340    0.0820 c3        1 MOL     -0.360112
     55 C18        -6.7640    0.2070   -0.0200 c         1 MOL      0.634999
     56 O9         -7.5040   -0.3520    0.7820 o         1 MOL     -0.588327
     57 H25        -4.8910    2.9400   -0.3880 hn        1 MOL      0.152772
     58 H26        -7.6240    2.1250   -0.1560 h1        1 MOL      0.157513
     59 H27        -6.3750    1.9640    1.1180 h1        1 MOL      0.157513
     60 N6         -6.0390   -0.4410   -0.9710 n         1 MOL     -0.483941
     61 C19        -6.2380   -1.8830   -1.2830 c3        1 MOL      0.108021
     62 C20        -6.1820   -2.8190   -0.0930 c         1 MOL      0.334550
     63 O10        -6.6380   -3.9310   -0.2250 o         1 MOL     -0.542494
     64 C21        -5.3300   -2.3760   -2.4530 c3        1 MOL     -0.062397
     65 C22        -3.9060   -2.5400   -2.0290 c         1 MOL      0.717703
     66 N7         -3.3450   -3.5670   -2.5010 n         1 MOL     -0.772075
     67 O11        -3.1840   -1.8020   -1.2980 o         1 MOL     -0.876973
     68 H28        -5.4660    0.1990   -1.5060 hn        1 MOL      0.394477
     69 H29        -7.2280   -2.0510   -1.7000 h1        1 MOL      0.054778
     70 H30        -5.2530   -1.5550   -3.1640 hc        1 MOL      0.042381
     71 H31        -5.7070   -3.3000   -2.8930 hc        1 MOL      0.042381
     72 H32        -3.8160   -4.2640   -3.0530 hn        1 MOL      0.364526
     73 H33        -2.3380   -3.5870   -2.3600 hn        1 MOL      0.364526
     74 N8         -5.4640   -2.4390    0.9510 n         1 MOL      0.073851
     75 C23        -5.1930   -3.1910    2.1570 c3        1 MOL     -0.405357
     76 C24        -3.6890   -3.5420    2.2910 c         1 MOL      0.823462
     77 O12        -3.3400   -4.2480    3.2420 o         1 MOL     -0.613200
     78 H34        -5.0710   -1.5060    0.8900 hn        1 MOL      0.257540
     79 H35        -5.7930   -4.0820    2.3630 h1        1 MOL      0.136946
     80 H36        -5.3870   -2.4310    2.9160 h1        1 MOL      0.136946
     81 N9         -2.7480   -2.9940    1.5340 n         1 MOL     -0.719957
     82 C25        -1.3910   -3.5550    1.3710 c3        1 MOL      0.459817
     83 C26        -0.2540   -2.5310    1.1420 c         1 MOL      0.549972
     84 O13        -0.4390   -1.5050    0.5590 o         1 MOL     -0.612707
     85 C27        -1.3130   -4.7130    0.3430 c3        1 MOL     -0.146450
     86 C28        -1.9970   -6.0110    0.7680 ca        1 MOL     -0.062200
     87 C29        -3.3000   -6.3530    0.3240 ca        1 MOL     -0.017059
     88 C30        -1.3090   -6.8490    1.7000 ca        1 MOL     -0.017059
     89 C31        -3.8640   -7.5790    0.6420 ca        1 MOL     -0.387074
     90 C32        -1.8670   -8.1090    1.9610 ca        1 MOL     -0.387074
     91 C33        -3.1780   -8.4970    1.4980 ca        1 MOL      0.419041
     92 O14        -3.7860   -9.6150    1.9280 oh        1 MOL     -0.439466
     93 H37        -3.0080   -2.2060    0.9440 hn        1 MOL      0.381710
     94 H38        -1.1440   -3.9680    2.3550 h1        1 MOL     -0.045394
     95 H39        -0.3050   -4.9850    0.0320 hc        1 MOL      0.026216
     96 H40        -1.7380   -4.2140   -0.5280 hc        1 MOL      0.026216
     97 H41        -3.9150   -5.5810   -0.1280 ha        1 MOL      0.100960
     98 H42        -0.3460   -6.5300    2.0680 ha        1 MOL      0.100960
     99 H43        -4.8700   -7.9220    0.4310 ha        1 MOL      0.169933
    100 H44        -1.4250   -8.7940    2.6640 ha        1 MOL      0.169933
    101 H45        -3.1010  -10.1680    2.3110 ho        1 MOL      0.325396
    102 N10         0.9350   -2.9270    1.5470 n         1 MOL     -0.594963
    103 C34         2.1660   -2.1270    1.4440 c3        1 MOL      0.150010
    104 C35         3.3570   -3.0210    1.1190 c         1 MOL      0.485952
    105 O15         3.8530   -3.7790    1.9260 o         1 MOL     -0.489357
    106 C36         2.4290   -1.4340    2.8030 c3        1 MOL     -0.214234
    107 C37         1.2690   -0.3850    3.1010 c3        1 MOL      0.163281
    108 C38         3.7620   -0.6460    2.8870 c3        1 MOL      0.233918
    109 C39         1.6150    0.6010    4.2230 c3        1 MOL     -0.060434
    110 H46         0.9720   -3.7970    2.0620 hn        1 MOL      0.317807
    111 H47         2.0510   -1.3660    0.6750 h1        1 MOL      0.046265
    112 H48         2.4570   -2.2000    3.5780 hc        1 MOL      0.066468
    113 H49         0.3510   -0.9220    3.3490 hc        1 MOL     -0.002201
    114 H50         1.1000    0.2050    2.2030 hc        1 MOL     -0.002201
    115 H51         3.8110    0.1990    2.1980 hc        1 MOL     -0.068959
    116 H52         3.9130   -0.2750    3.8950 hc        1 MOL     -0.068959
    117 H53         4.5860   -1.2910    2.5900 hc        1 MOL     -0.068959
    118 H54         2.2160    1.4570    3.9160 hc        1 MOL      0.012768
    119 H55         0.6950    0.9720    4.6730 hc        1 MOL      0.012768
    120 H56         1.9640   -0.0180    5.0390 hc        1 MOL      0.012768
    121 N11         3.9260   -2.7680   -0.1190 n         1 MOL     -0.413315
    122 C40         5.2520   -3.1870   -0.6550 c3        1 MOL      0.023668
    123 C41         6.4090   -2.3120   -0.1100 c         1 MOL      0.498724
    124 O16         6.2110   -1.2410    0.4630 o         1 MOL     -0.333566
    125 C42         5.1850   -3.3600   -2.1920 c3        1 MOL     -0.189376
    126 O17         4.8040   -2.1430   -2.7800 oh        1 MOL     -0.527119
    127 H57         3.4740   -2.0570   -0.6900 hn        1 MOL      0.309438
    128 H58         5.4730   -4.1880   -0.3010 h1        1 MOL      0.075170
    129 H59         4.5110   -4.1520   -2.5250 h1        1 MOL      0.124357
    130 H60         6.1410   -3.6240   -2.6360 h1        1 MOL      0.124357
    131 H61         4.8150   -2.2490   -3.7420 ho        1 MOL      0.418382
    132 N12         7.6360   -2.7870   -0.3320 n         1 MOL     -0.551417
    133 C43         8.8440   -2.0710    0.1190 c3        1 MOL      0.292205
    134 C44         8.8600   -0.6600   -0.4730 c         1 MOL      0.365439
    135 O18         9.2050    0.3510    0.1650 o         1 MOL     -0.516802
    136 C45        10.1110   -2.7480   -0.2960 c3        1 MOL     -0.208089
    137 H62         7.7680   -3.6710   -0.8040 hn        1 MOL      0.305684
    138 H63         8.8780   -1.9090    1.2000 h1        1 MOL      0.034443
    139 H64        10.0520   -3.7740    0.0710 hc        1 MOL      0.061911
    140 H65        10.1850   -2.7010   -1.3770 hc        1 MOL      0.061911
    141 H66        10.9850   -2.2990    0.1930 hc        1 MOL      0.061911
    142 N13         8.3870   -0.4850   -1.7210 n         1 MOL     -0.285841
    143 C46         8.2830    0.7640   -2.4830 c3        1 MOL      0.056875
    144 C47         7.2680    1.7740   -1.8750 c         1 MOL      0.359051
    145 O19         7.5020    2.9820   -2.0750 o         1 MOL     -0.492594
    146 C48         8.0260    0.4280   -3.9160 c3        1 MOL     -0.273916
    147 H67         8.0950   -1.3120   -2.2250 hn        1 MOL      0.229562
    148 H68         9.2790    1.1960   -2.5750 h1        1 MOL      0.106870
    149 H69         7.9020    1.3700   -4.4570 hc        1 MOL      0.076696
    150 H70         8.8980   -0.0920   -4.3120 hc        1 MOL      0.076696
    151 H71         7.1270   -0.1850   -3.9770 hc        1 MOL      0.076696
    152 N14         6.1780    1.2720   -1.1900 n         1 MOL     -0.106123
    153 C49         5.2110    2.0710   -0.4390 c3        1 MOL     -0.025339
    154 C50         5.7000    2.4720    0.9770 c         1 MOL      0.396203
    155 O20         5.5810    3.6420    1.3630 o         1 MOL     -0.545120
    156 C51         3.8110    1.4430   -0.4310 c3        1 MOL      0.093711
    157 C52         3.0970    1.5540   -1.8310 c3        1 MOL     -0.053168
    158 C53         1.6760    1.0260   -1.8520 c         1 MOL      0.790705
    159 O21         0.8600    1.5210   -1.0580 o         1 MOL     -0.800829
    160 O22         1.2940    0.1240   -2.6890 o         1 MOL     -0.800829
    161 H72         6.0910    0.2700   -1.1050 hn        1 MOL      0.130250
    162 H73         4.9930    2.9510   -1.0490 h1        1 MOL      0.073821
    163 H74         3.0840    1.9040    0.2440 hc        1 MOL      0.011248
    164 H75         3.9190    0.3760   -0.2670 hc        1 MOL      0.011248
    165 H76         3.6960    0.9340   -2.4940 hc        1 MOL     -0.025274
    166 H77         3.1340    2.5720   -2.2180 hc        1 MOL     -0.025274
    167 N15         6.4180    1.5600    1.6220 n         1 MOL     -0.018696
    168 C54         7.0720    1.7580    2.9220 c3        1 MOL     -0.221227
    169 H78         6.7420    0.9860    3.6160 h1        1 MOL      0.088468
    170 H79         8.1530    1.6970    2.7990 h1        1 MOL      0.088468
    171 H80         6.8050    2.7390    3.3170 h1        1 MOL      0.088468
    172 H81         6.5120    0.6200    1.2630 hn        1 MOL      0.074641
    173 Ca1        -1.0910   -0.2820   -1.6480 Ca        1 MOL      1.767518
    174 O23         0.1390   -2.5870   -2.2640 oh        1 MOL     -0.762590
    175 H82        -0.2290   -3.0750   -3.0050 ho        1 MOL      0.373029
    176 H83         0.9470   -3.0680   -2.0390 ho        1 MOL      0.373029
    177 O24        -1.4080   -1.2390   -4.2110 oh        1 MOL     -0.762590
    178 H84        -1.5010   -1.9030   -4.8910 ho        1 MOL      0.373029
    179 H85        -2.2090   -0.7240   -4.2620 ho        1 MOL      0.373029
@<TRIPOS>BOND
     1    1    2 1   
     2    1    4 1   
     3    1    5 1   
     4    1    6 1   
     5    2    3 2   
     6    2    7 1   
     7    7    8 1   
     8    7   15 1   
     9    8    9 1   
    10    8   11 1   
    11    8   16 1   
    12    9   10 2   
    13    9   19 1   
    14   11   12 1   
    15   11   17 1   
    16   11   18 1   
    17   12   13 1   
    18   12   14 1   
    19   19   20 1   
    20   19   28 1   
    21   20   21 1   
    22   20   23 1   
    23   20   29 1   
    24   21   22 2   
    25   21   41 1   
    26   23   24 1   
    27   23   30 1   
    28   23   31 1   
    29   24   25 1   
    30   24   32 1   
    31   24   33 1   
    32   25   26 1   
    33   25   34 1   
    34   25   35 1   
    35   26   27 1   
    36   26   36 1   
    37   26   37 1   
    38   27   38 1   
    39   27   39 1   
    40   27   40 1   
    41   41   42 1   
    42   41   49 1   
    43   42   43 1   
    44   42   45 1   
    45   42   50 1   
    46   43   44 2   
    47   43   53 1   
    48   45   46 1   
    49   45   51 1   
    50   45   52 1   
    51   46   47 1   
    52   46   48 1   
    53   53   54 1   
    54   53   57 1   
    55   54   55 1   
    56   54   58 1   
    57   54   59 1   
    58   55   56 2   
    59   55   60 1   
    60   60   61 1   
    61   60   68 1   
    62   61   62 1   
    63   61   64 1   
    64   61   69 1   
    65   62   63 2   
    66   62   74 1   
    67   64   65 1   
    68   64   70 1   
    69   64   71 1   
    70   65   66 1   
    71   65   67 2   
    72   66   72 1   
    73   66   73 1   
    74   74   75 1   
    75   74   78 1   
    76   75   76 1   
    77   75   79 1   
    78   75   80 1   
    79   76   77 2   
    80   76   81 1   
    81   81   82 1   
    82   81   93 1   
    83   82   83 1   
    84   82   85 1   
    85   82   94 1   
    86   83   84 2   
    87   83  102 1   
    88   85   86 1   
    89   85   95 1   
    90   85   96 1   
    91   86   87 ar  
    92   86   88 ar  
    93   87   89 ar  
    94   87   97 1   
    95   88   90 ar  
    96   88   98 1   
    97   89   91 ar  
    98   89   99 1   
    99   90   91 ar  
   100   90  100 1   
   101   91   92 1   
   102   92  101 1   
   103  102  103 1   
   104  102  110 1   
   105  103  104 1   
   106  103  106 1   
   107  103  111 1   
   108  104  105 2   
   109  104  121 1   
   110  106  107 1   
   111  106  108 1   
   112  106  112 1   
   113  107  109 1   
   114  107  113 1   
   115  107  114 1   
   116  108  115 1   
   117  108  116 1   
   118  108  117 1   
   119  109  118 1   
   120  109  119 1   
   121  109  120 1   
   122  121  122 1   
   123  121  127 1   
   124  122  123 1   
   125  122  125 1   
   126  122  128 1   
   127  123  124 2   
   128  123  132 1   
   129  125  126 1   
   130  125  129 1   
   131  125  130 1   
   132  126  131 1   
   133  132  133 1   
   134  132  137 1   
   135  133  134 1   
   136  133  136 1   
   137  133  138 1   
   138  134  135 2   
   139  134  142 1   
   140  136  139 1   
   141  136  140 1   
   142  136  141 1   
   143  142  143 1   
   144  142  147 1   
   145  143  144 1   
   146  143  146 1   
   147  143  148 1   
   148  144  145 2   
   149  144  152 1   
   150  146  149 1   
   151  146  150 1   
   152  146  151 1   
   153  152  153 1   
   154  152  161 1   
   155  153  154 1   
   156  153  156 1   
   157  153  162 1   
   158  154  155 2   
   159  154  167 1   
   160  156  157 1   
   161  156  163 1   
   162  156  164 1   
   163  157  158 1   
   164  157  165 1   
   165  157  166 1   
   166  158  159 1   
   167  158  160 1   
   168  167  168 1   
   169  167  172 1   
   170  168  169 1   
   171  168  170 1   
   172  168  171 1   
   173  174  175 1   
   174  174  176 1   
   175  177  178 1   
   176  177  179 1   
@<TRIPOS>SUBSTRUCTURE
     1 MOL         1 TEMP              0 ****  ****    0 ROOT
