@<TRIPOS>MOLECULE
MOL
  179   176     1     0     0
SMALL
resp


@<TRIPOS>ATOM
      1 C1          2.4820    3.5820    3.6700 c3        1 MOL     -0.350193
      2 C2          1.4780    3.2570    2.5390 c         1 MOL      0.587239
      3 O1          1.8270    3.2980    1.3270 o         1 MOL     -0.571514
      4 H1          3.4570    3.8060    3.2360 hc        1 MOL      0.090136
      5 H2          2.1290    4.4460    4.2330 hc        1 MOL      0.090136
      6 H3          2.5700    2.7250    4.3380 hc        1 MOL      0.090136
      7 N1          0.2470    2.9560    2.8870 n         1 MOL     -0.587631
      8 C3         -0.8740    2.5670    2.0620 c3        1 MOL      0.252940
      9 C4         -1.5970    3.7900    1.4780 c         1 MOL      0.463609
     10 O2         -2.7960    4.1200    1.7950 o         1 MOL     -0.480368
     11 C5         -1.8590    1.6620    2.8330 c3        1 MOL     -0.309252
     12 C6         -2.8680    1.0820    1.8480 c         1 MOL      0.837071
     13 O3         -4.0140    0.8430    2.2620 o         1 MOL     -0.715786
     14 O4         -2.5350    0.7300    0.7060 o         1 MOL     -0.715786
     15 H4          0.0830    2.9670    3.8920 hn        1 MOL      0.320076
     16 H5         -0.4230    2.0070    1.2470 h1        1 MOL     -0.058470
     17 H6         -2.4870    2.3530    3.4100 hc        1 MOL      0.065719
     18 H7         -1.4330    0.8660    3.4460 hc        1 MOL      0.065719
     19 N2         -0.8700    4.5900    0.6420 n         1 MOL     -0.423964
     20 C7         -1.2580    5.9880    0.2240 c3        1 MOL      0.049442
     21 C8         -2.4150    6.0290   -0.7530 c         1 MOL      0.424433
     22 O5         -3.1260    6.9880   -0.9190 o         1 MOL     -0.554027
     23 C9         -0.0980    6.9070   -0.2070 c3        1 MOL     -0.152522
     24 C10         0.7770    7.4690    0.9040 c3        1 MOL      0.303512
     25 C11         1.7930    8.5470    0.3370 c3        1 MOL     -0.244595
     26 C12         2.6830    9.2470    1.3830 c3        1 MOL      0.050307
     27 N3          3.6360    8.2530    2.0030 n4        1 MOL     -0.394463
     28 H8          0.0950    4.3370    0.4990 hn        1 MOL      0.371786
     29 H9         -1.6170    6.5400    1.0910 h1        1 MOL      0.073095
     30 H10        -0.4260    7.7540   -0.8130 hc        1 MOL      0.047873
     31 H11         0.5620    6.2600   -0.7900 hc        1 MOL      0.047873
     32 H12         1.2680    6.6500    1.4250 hc        1 MOL     -0.069900
     33 H13         0.1360    7.8790    1.6850 hc        1 MOL     -0.069900
     34 H14         1.1240    9.3350   -0.0220 hc        1 MOL      0.109126
     35 H15         2.3900    8.0590   -0.4200 hc        1 MOL      0.109126
     36 H16         2.1580    9.7640    2.1780 hx        1 MOL      0.092936
     37 H17         3.1930   10.0350    0.8130 hx        1 MOL      0.092936
     38 H18         4.2640    7.8080    1.3550 hn        1 MOL      0.339175
     39 H19         4.2000    8.6740    2.7290 hn        1 MOL      0.339175
     40 H20         3.1100    7.5680    2.5340 hn        1 MOL      0.339175
     41 N4         -2.6180    4.9840   -1.5050 n         1 MOL     -0.208083
     42 C13        -3.7530    4.7240   -2.4820 c3        1 MOL     -0.035237
     43 C14        -5.0020    4.2740   -1.6960 c         1 MOL      0.521297
     44 O6         -6.0490    4.3080   -2.3290 o         1 MOL     -0.560025
     45 C15        -3.1990    3.7020   -3.3730 c3        1 MOL     -0.162539
     46 C16        -2.6430    2.4670   -2.6270 c         1 MOL      0.686292
     47 O7         -1.3750    2.4190   -2.4030 o         1 MOL     -0.698738
     48 O8         -3.3980    1.5240   -2.3530 o         1 MOL     -0.698738
     49 H21        -1.9960    4.2010   -1.3100 hn        1 MOL      0.136474
     50 H22        -3.9630    5.6760   -2.9820 h1        1 MOL      0.121486
     51 H23        -2.4240    4.1150   -4.0090 hc        1 MOL      0.055429
     52 H24        -4.0470    3.4490   -4.0140 hc        1 MOL      0.055429
     53 N5         -4.9890    3.7980   -0.4350 n         1 MOL     -0.283451
     54 C17        -6.1470    3.2920    0.2820 c3        1 MOL     -0.099876
     55 C18        -6.5150    1.7760    0.0180 c         1 MOL      0.520713
     56 O9         -7.3720    1.3530    0.7870 o         1 MOL     -0.594929
     57 H25        -4.0900    3.8000    0.0240 hn        1 MOL      0.192120
     58 H26        -7.1130    3.7880    0.1590 h1        1 MOL      0.101172
     59 H27        -5.9840    3.4530    1.3500 h1        1 MOL      0.101172
     60 N6         -5.9180    1.0670   -0.8730 n         1 MOL     -0.387843
     61 C19        -6.3270   -0.2720   -1.3040 c3        1 MOL      0.187609
     62 C20        -6.2840   -1.3440   -0.1800 c         1 MOL      0.301835
     63 O10        -6.8560   -2.3560   -0.4270 o         1 MOL     -0.531215
     64 C21        -5.6710   -0.8120   -2.5660 c3        1 MOL     -0.493431
     65 C22        -4.5530   -1.8760   -2.3680 c         1 MOL      0.708983
     66 N7         -4.7330   -3.0760   -2.8490 n         1 MOL     -0.684609
     67 O11        -3.5810   -1.6010   -1.7350 o         1 MOL     -0.662013
     68 H28        -5.1890    1.5640   -1.3770 hn        1 MOL      0.276701
     69 H29        -7.3960   -0.1650   -1.5030 h1        1 MOL      0.085166
     70 H30        -5.3870    0.0810   -3.1360 hc        1 MOL      0.146267
     71 H31        -6.4630   -1.3490   -3.0790 hc        1 MOL      0.146267
     72 H32        -5.5290   -3.3650   -3.4080 hn        1 MOL      0.331654
     73 H33        -4.1120   -3.8430   -2.6470 hn        1 MOL      0.331654
     74 N8         -5.6130   -1.0600    0.9120 n         1 MOL     -0.015103
     75 C23        -5.6440   -1.8940    2.1290 c3        1 MOL     -0.212772
     76 C24        -4.4340   -2.8400    2.2790 c         1 MOL      0.415888
     77 O12        -4.4650   -3.6280    3.2150 o         1 MOL     -0.543289
     78 H34        -5.1790   -0.1580    1.0760 hn        1 MOL      0.257367
     79 H35        -6.6040   -2.4110    2.1940 h1        1 MOL      0.122175
     80 H36        -5.6960   -1.1360    2.9000 h1        1 MOL      0.122175
     81 N9         -3.4890   -2.8770    1.3360 n         1 MOL      0.119511
     82 C25        -2.2850   -3.6880    1.3520 c3        1 MOL      0.203438
     83 C26        -1.0430   -2.7870    1.1540 c         1 MOL      0.416744
     84 O13        -1.0590   -1.8160    0.4090 o         1 MOL     -0.482434
     85 C27        -2.5210   -4.8000    0.3260 c3        1 MOL     -0.090109
     86 C28        -3.7680   -5.6980    0.3870 ca        1 MOL     -0.109074
     87 C29        -3.6810   -6.9250    1.1400 ca        1 MOL     -0.036454
     88 C30        -4.9760   -5.3760   -0.3030 ca        1 MOL     -0.036454
     89 C31        -4.7690   -7.7320    1.1890 ca        1 MOL     -0.432404
     90 C32        -6.0970   -6.1930   -0.1090 ca        1 MOL     -0.432404
     91 C33        -5.9840   -7.3090    0.6980 ca        1 MOL      0.581379
     92 O14        -7.1180   -7.9980    0.9020 oh        1 MOL     -0.567964
     93 H37        -3.3550   -2.0280    0.8040 hn        1 MOL     -0.119506
     94 H38        -2.1390   -4.0940    2.3540 h1        1 MOL     -0.034422
     95 H39        -1.6910   -5.5060    0.3070 hc        1 MOL      0.030927
     96 H40        -2.5670   -4.2890   -0.6310 hc        1 MOL      0.030927
     97 H41        -2.7870   -7.2260    1.6690 ha        1 MOL      0.135537
     98 H42        -5.0660   -4.4250   -0.7890 ha        1 MOL      0.135537
     99 H43        -4.8050   -8.6360    1.7980 ha        1 MOL      0.174047
    100 H44        -7.0510   -6.0020   -0.5730 ha        1 MOL      0.174047
    101 H45        -7.8380   -7.6350    0.3870 ho        1 MOL      0.381179
    102 N10         0.0720   -3.1660    1.7800 n         1 MOL     -0.511486
    103 C34         1.4010   -2.6540    1.3610 c3        1 MOL     -0.042788
    104 C35         2.4160   -3.7370    0.8420 c         1 MOL      0.594636
    105 O15         2.4880   -4.8740    1.2720 o         1 MOL     -0.546148
    106 C36         2.0880   -1.7060    2.4300 c3        1 MOL      0.069348
    107 C37         2.5950   -2.4430    3.7330 c3        1 MOL     -0.189093
    108 C38         1.0920   -0.4950    2.6320 c3        1 MOL     -0.053241
    109 C39         3.2320   -1.3370    4.6340 c3        1 MOL     -0.082715
    110 H46         0.0820   -3.8530    2.5250 hn        1 MOL      0.333817
    111 H47         1.2740   -2.0120    0.4900 h1        1 MOL      0.083052
    112 H48         3.0030   -1.3140    1.9900 hc        1 MOL     -0.050446
    113 H49         3.3020   -3.1700    3.3290 hc        1 MOL      0.081375
    114 H50         1.8420   -3.0030    4.3040 hc        1 MOL      0.081375
    115 H51         1.5670    0.2880    3.2210 hc        1 MOL      0.062289
    116 H52         0.7810   -0.1500    1.6460 hc        1 MOL      0.062289
    117 H53         0.2320   -0.7450    3.2520 hc        1 MOL      0.062289
    118 H54         3.8150   -1.8590    5.3920 hc        1 MOL      0.026321
    119 H55         3.9650   -0.6980    4.1370 hc        1 MOL      0.026321
    120 H56         2.4710   -0.8250    5.2280 hc        1 MOL      0.026321
    121 N11         3.2100   -3.2350   -0.1200 n         1 MOL     -0.442710
    122 C40         4.2800   -3.9240   -0.7750 c3        1 MOL      0.176246
    123 C41         5.6560   -3.4920   -0.2200 c         1 MOL      0.470042
    124 O16         5.7650   -2.5450    0.5740 o         1 MOL     -0.400107
    125 C42         4.1040   -3.7040   -2.3110 c3        1 MOL     -0.203391
    126 O17         4.7240   -2.4170   -2.6510 oh        1 MOL     -0.495692
    127 H57         3.0720   -2.3050   -0.4960 hn        1 MOL      0.209216
    128 H58         4.2390   -5.0070   -0.6680 h1        1 MOL      0.041464
    129 H59         3.1120   -3.7200   -2.7460 h1        1 MOL      0.126461
    130 H60         4.7070   -4.5040   -2.7470 h1        1 MOL      0.126461
    131 H61         4.4260   -2.0800   -3.5020 ho        1 MOL      0.393155
    132 N12         6.7140   -4.1820   -0.5580 n         1 MOL     -0.524689
    133 C43         8.0930   -3.6900   -0.2550 c3        1 MOL      0.203976
    134 C44         8.4190   -2.2920   -0.8420 c         1 MOL      0.389175
    135 O18         9.0730   -1.3990   -0.1890 o         1 MOL     -0.495314
    136 C45         9.1520   -4.7150   -0.7230 c3        1 MOL     -0.240505
    137 H62         6.6110   -4.9330   -1.2370 hn        1 MOL      0.315859
    138 H63         8.1320   -3.7820    0.8290 h1        1 MOL      0.083769
    139 H64        10.0730   -4.3480   -0.2700 hc        1 MOL      0.070395
    140 H65         8.9080   -5.7370   -0.4270 hc        1 MOL      0.070395
    141 H66         9.0800   -4.6620   -1.8130 hc        1 MOL      0.070395
    142 N13         7.8060   -2.0030   -2.0150 n         1 MOL     -0.301489
    143 C46         7.9730   -0.6810   -2.5380 c3        1 MOL      0.082838
    144 C47         7.3320    0.4410   -1.7200 c         1 MOL      0.421323
    145 O19         7.9990    1.4500   -1.4580 o         1 MOL     -0.500054
    146 C48         7.4760   -0.5840   -4.0100 c3        1 MOL     -0.243973
    147 H67         7.1640   -2.6580   -2.4430 hn        1 MOL      0.229290
    148 H68         9.0310   -0.4090   -2.5990 h1        1 MOL      0.083704
    149 H69         7.7050    0.3860   -4.4660 hc        1 MOL      0.058098
    150 H70         7.7400   -1.4720   -4.5830 hc        1 MOL      0.058098
    151 H71         6.3940   -0.5880   -3.9010 hc        1 MOL      0.058098
    152 N14         6.0590    0.1620   -1.3140 n         1 MOL     -0.188148
    153 C49         5.2790    1.0430   -0.3970 c3        1 MOL     -0.196058
    154 C50         5.8770    1.2310    0.9680 c         1 MOL      0.384654
    155 O20         5.6090    2.2810    1.6030 o         1 MOL     -0.547955
    156 C51         3.8660    0.6450   -0.1860 c3        1 MOL      0.055163
    157 C52         3.0580    0.9570   -1.4260 c3        1 MOL     -0.132727
    158 C53         1.5760    0.4090   -1.3520 c         1 MOL      0.787574
    159 O21         1.3210   -0.7370   -1.8270 o         1 MOL     -0.756255
    160 O22         0.6440    1.0530   -0.7810 o         1 MOL     -0.756255
    161 H72         5.6270   -0.6850   -1.6470 hn        1 MOL      0.262374
    162 H73         5.1640    2.0610   -0.7670 h1        1 MOL      0.129433
    163 H74         3.3900    1.1010    0.6870 hc        1 MOL      0.084801
    164 H75         3.8210   -0.4370   -0.0540 hc        1 MOL      0.084801
    165 H76         3.6240    0.5450   -2.2640 hc        1 MOL     -0.005533
    166 H77         2.9920    2.0490   -1.5210 hc        1 MOL     -0.005533
    167 N15         6.6650    0.2320    1.3890 n         1 MOL      0.059273
    168 C54         7.5590    0.3580    2.6040 c3        1 MOL     -0.290503
    169 H78         8.5710    0.6040    2.2850 h1        1 MOL      0.112348
    170 H79         7.1810    1.1480    3.2530 h1        1 MOL      0.112348
    171 H80         7.5680   -0.5860    3.1470 h1        1 MOL      0.112348
    172 H81         6.6530   -0.6610    0.9120 hn        1 MOL      0.009169
    173 Ca1        -1.4280   -0.0300   -1.5080 Ca        1 MOL      1.728492
    174 O23        -0.5870   -2.5310   -2.4720 oh        1 MOL     -0.779181
    175 H82         0.2160   -2.0520   -2.2560 ho        1 MOL      0.385159
    176 H83        -0.3310   -3.4530   -2.4180 ho        1 MOL      0.385159
    177 O24        -1.0910    0.1080   -4.1990 oh        1 MOL     -0.779181
    178 H84        -1.5690    0.7850   -4.6660 ho        1 MOL      0.385159
    179 H85        -1.2410   -0.6950   -4.7110 ho        1 MOL      0.385159
@<TRIPOS>BOND
     1    1    2 1   
     2    1    4 1   
     3    1    5 1   
     4    1    6 1   
     5    2    3 2   
     6    2    7 1   
     7    7    8 1   
     8    7   15 1   
     9    8    9 1   
    10    8   11 1   
    11    8   16 1   
    12    9   10 2   
    13    9   19 1   
    14   11   12 1   
    15   11   17 1   
    16   11   18 1   
    17   12   13 1   
    18   12   14 1   
    19   19   20 1   
    20   19   28 1   
    21   20   21 1   
    22   20   23 1   
    23   20   29 1   
    24   21   22 2   
    25   21   41 1   
    26   23   24 1   
    27   23   30 1   
    28   23   31 1   
    29   24   25 1   
    30   24   32 1   
    31   24   33 1   
    32   25   26 1   
    33   25   34 1   
    34   25   35 1   
    35   26   27 1   
    36   26   36 1   
    37   26   37 1   
    38   27   38 1   
    39   27   39 1   
    40   27   40 1   
    41   41   42 1   
    42   41   49 1   
    43   42   43 1   
    44   42   45 1   
    45   42   50 1   
    46   43   44 2   
    47   43   53 1   
    48   45   46 1   
    49   45   51 1   
    50   45   52 1   
    51   46   47 1   
    52   46   48 1   
    53   53   54 1   
    54   53   57 1   
    55   54   55 1   
    56   54   58 1   
    57   54   59 1   
    58   55   56 2   
    59   55   60 1   
    60   60   61 1   
    61   60   68 1   
    62   61   62 1   
    63   61   64 1   
    64   61   69 1   
    65   62   63 2   
    66   62   74 1   
    67   64   65 1   
    68   64   70 1   
    69   64   71 1   
    70   65   66 1   
    71   65   67 2   
    72   66   72 1   
    73   66   73 1   
    74   74   75 1   
    75   74   78 1   
    76   75   76 1   
    77   75   79 1   
    78   75   80 1   
    79   76   77 2   
    80   76   81 1   
    81   81   82 1   
    82   81   93 1   
    83   82   83 1   
    84   82   85 1   
    85   82   94 1   
    86   83   84 2   
    87   83  102 1   
    88   85   86 1   
    89   85   95 1   
    90   85   96 1   
    91   86   87 ar  
    92   86   88 ar  
    93   87   89 ar  
    94   87   97 1   
    95   88   90 ar  
    96   88   98 1   
    97   89   91 ar  
    98   89   99 1   
    99   90   91 ar  
   100   90  100 1   
   101   91   92 1   
   102   92  101 1   
   103  102  103 1   
   104  102  110 1   
   105  103  104 1   
   106  103  106 1   
   107  103  111 1   
   108  104  105 2   
   109  104  121 1   
   110  106  107 1   
   111  106  108 1   
   112  106  112 1   
   113  107  109 1   
   114  107  113 1   
   115  107  114 1   
   116  108  115 1   
   117  108  116 1   
   118  108  117 1   
   119  109  118 1   
   120  109  119 1   
   121  109  120 1   
   122  121  122 1   
   123  121  127 1   
   124  122  123 1   
   125  122  125 1   
   126  122  128 1   
   127  123  124 2   
   128  123  132 1   
   129  125  126 1   
   130  125  129 1   
   131  125  130 1   
   132  126  131 1   
   133  132  133 1   
   134  132  137 1   
   135  133  134 1   
   136  133  136 1   
   137  133  138 1   
   138  134  135 2   
   139  134  142 1   
   140  136  139 1   
   141  136  140 1   
   142  136  141 1   
   143  142  143 1   
   144  142  147 1   
   145  143  144 1   
   146  143  146 1   
   147  143  148 1   
   148  144  145 2   
   149  144  152 1   
   150  146  149 1   
   151  146  150 1   
   152  146  151 1   
   153  152  153 1   
   154  152  161 1   
   155  153  154 1   
   156  153  156 1   
   157  153  162 1   
   158  154  155 2   
   159  154  167 1   
   160  156  157 1   
   161  156  163 1   
   162  156  164 1   
   163  157  158 1   
   164  157  165 1   
   165  157  166 1   
   166  158  159 1   
   167  158  160 1   
   168  167  168 1   
   169  167  172 1   
   170  168  169 1   
   171  168  170 1   
   172  168  171 1   
   173  174  175 1   
   174  174  176 1   
   175  177  178 1   
   176  177  179 1   
@<TRIPOS>SUBSTRUCTURE
     1 MOL         1 TEMP              0 ****  ****    0 ROOT
