@<TRIPOS>MOLECULE
MOL
  172   171     1     0     0
SMALL
resp


@<TRIPOS>ATOM
      1 C1         -0.4170   -3.4000    5.6050 c3        1 MOL     -0.395709
      2 C2          0.2160   -3.2830    4.1890 c         1 MOL      0.700041
      3 O1         -0.4380   -3.5310    3.1610 o         1 MOL     -0.611974
      4 H1          0.3130   -3.8240    6.2940 hc        1 MOL      0.102042
      5 H2         -0.7140   -2.4110    5.9530 hc        1 MOL      0.102042
      6 H3         -1.2920   -4.0470    5.5590 hc        1 MOL      0.102042
      7 N1          1.3840   -2.6860    4.0640 n         1 MOL     -0.579640
      8 C3          2.0760   -2.3330    2.7970 c3        1 MOL      0.069905
      9 C4          2.5710   -3.6140    2.1660 c         1 MOL      0.607964
     10 O2          3.2710   -4.4500    2.7910 o         1 MOL     -0.630350
     11 C5          3.1870   -1.3020    2.9980 c3        1 MOL      0.032414
     12 C6          3.8820   -0.7270    1.7580 c         1 MOL      0.389741
     13 O3          3.4540   -1.0260    0.6410 o         1 MOL     -0.600618
     14 O4          4.9110   -0.0570    2.0650 o         1 MOL     -0.600618
     15 H4          1.9010   -2.4910    4.9140 hn        1 MOL      0.296632
     16 H5          1.3570   -1.8760    2.1170 h1        1 MOL      0.093087
     17 H6          3.9470   -1.6880    3.6820 hc        1 MOL      0.013975
     18 H7          2.7390   -0.5190    3.6140 hc        1 MOL      0.013975
     19 N2          2.2320   -3.8380    0.9220 n         1 MOL     -0.399610
     20 C7          2.4690   -5.0930    0.2160 c3        1 MOL      0.301523
     21 C8          3.6140   -4.9450   -0.7780 c         1 MOL      0.353715
     22 O5          4.4520   -5.7850   -0.9170 o         1 MOL     -0.556293
     23 C9          1.1500   -5.4550   -0.4890 c3        1 MOL     -0.477770
     24 H8          1.5800   -3.2480    0.4330 hn        1 MOL      0.270478
     25 H9          2.8030   -5.9020    0.8760 h1        1 MOL      0.026911
     26 H10         0.8800   -4.6710   -1.1960 hc        1 MOL      0.118927
     27 H11         1.3210   -6.3990   -1.0050 hc        1 MOL      0.118927
     28 H12         0.2850   -5.5570    0.1760 hc        1 MOL      0.118927
     29 N3          3.6470   -3.9040   -1.6080 n         1 MOL     -0.137691
     30 C10         4.7840   -3.6290   -2.5130 c3        1 MOL     -0.108364
     31 C11         5.8730   -2.9780   -1.7480 c         1 MOL      0.486720
     32 O6          6.9320   -2.6210   -2.2920 o         1 MOL     -0.569201
     33 C12         4.3850   -2.9430   -3.8350 c3        1 MOL      0.028292
     34 C13         3.8800   -1.4970   -3.8010 c         1 MOL      0.589806
     35 O7          3.9870   -0.8780   -4.8920 o         1 MOL     -0.662282
     36 O8          3.3630   -1.0640   -2.7180 o         1 MOL     -0.662282
     37 H13         3.0350   -3.0990   -1.5410 hn        1 MOL      0.099460
     38 H14         5.2250   -4.5340   -2.9410 h1        1 MOL      0.097402
     39 H15         3.5660   -3.5500   -4.2280 hc        1 MOL     -0.001996
     40 H16         5.2490   -2.9250   -4.4940 hc        1 MOL     -0.001996
     41 N4          5.6860   -2.7460   -0.4590 n         1 MOL     -0.173310
     42 C14         6.7250   -2.4020    0.5730 c3        1 MOL     -0.304683
     43 C15         7.3440   -1.0350    0.3340 c         1 MOL      0.624164
     44 O9          8.4350   -0.7080    0.8080 o         1 MOL     -0.615937
     45 H17         4.7830   -2.9440   -0.0560 hn        1 MOL      0.220684
     46 H18         7.5760   -3.0830    0.5760 h1        1 MOL      0.131109
     47 H19         6.2120   -2.4450    1.5330 h1        1 MOL      0.131109
     48 N5          6.5920   -0.1360   -0.3030 n         1 MOL     -0.232755
     49 C16         7.0840    1.1330   -0.8500 c3        1 MOL     -0.193853
     50 C17         6.8510    2.4170    0.0690 c         1 MOL      0.480845
     51 O10         7.1190    3.5050   -0.3680 o         1 MOL     -0.523848
     52 C18         6.4220    1.3550   -2.2700 c3        1 MOL     -0.019221
     53 C19         4.9360    1.5520   -2.2870 c         1 MOL      0.584403
     54 N6          4.4700    2.2170   -3.2980 n         1 MOL     -0.746742
     55 O11         4.2210    1.4630   -1.3070 o         1 MOL     -0.561765
     56 H20         5.6250   -0.3320   -0.5130 hn        1 MOL      0.208679
     57 H21         8.1410    1.0130   -1.1120 h1        1 MOL      0.133339
     58 H22         6.7600    0.5220   -2.8900 hc        1 MOL      0.039826
     59 H23         6.8710    2.2660   -2.6670 hc        1 MOL      0.039826
     60 H24         4.9660    2.4020   -4.1640 hn        1 MOL      0.359395
     61 H25         3.5120    2.5260   -3.1770 hn        1 MOL      0.359395
     62 N7          6.4840    2.1800    1.3160 n         1 MOL     -0.259055
     63 C20         6.2570    3.2500    2.3200 c3        1 MOL     -0.286375
     64 C21         4.8760    3.8790    2.3020 c         1 MOL      0.641444
     65 O12         4.5470    4.7040    3.1250 o         1 MOL     -0.597696
     66 H26         6.2420    1.2380    1.5940 hn        1 MOL      0.287253
     67 H27         7.0240    4.0100    2.1430 h1        1 MOL      0.128965
     68 H28         6.4070    2.7980    3.2980 h1        1 MOL      0.128965
     69 N8          4.0950    3.5380    1.2500 n         1 MOL     -0.266474
     70 C22         2.9960    4.2750    0.6730 c3        1 MOL     -0.075300
     71 C23         1.6540    3.3730    0.6590 c         1 MOL      0.281194
     72 O13         1.7690    2.1420    0.6050 o         1 MOL     -0.423356
     73 C24         3.3000    4.6450   -0.8190 c3        1 MOL      0.677614
     74 C25         2.2680    5.6060   -1.4190 c3        1 MOL     -0.642152
     75 O14         4.5770    5.3040   -0.8500 oh        1 MOL     -0.633169
     76 H29         4.4700    2.7670    0.7040 hn        1 MOL      0.158104
     77 H30         2.8970    5.2200    1.2110 h1        1 MOL      0.088085
     78 H31         3.3240    3.7770   -1.4830 h1        1 MOL     -0.026930
     79 H32         4.8690    5.1330   -1.7490 ho        1 MOL      0.344369
     80 H33         2.6150    5.9990   -2.3710 hc        1 MOL      0.139682
     81 H34         1.3240    5.1120   -1.6240 hc        1 MOL      0.139682
     82 H35         2.2000    6.4930   -0.7880 hc        1 MOL      0.139682
     83 N9          0.4150    3.8580    0.8450 n         1 MOL     -0.322457
     84 C26        -0.8940    3.1350    1.0760 c3        1 MOL      0.001559
     85 C27        -1.7520    3.1080   -0.1650 c         1 MOL      0.414563
     86 O15        -1.9920    4.1780   -0.7160 o         1 MOL     -0.580116
     87 C28        -1.6200    3.5280    2.3760 c3        1 MOL      0.292410
     88 C29        -0.7310    4.1630    3.4840 c3        1 MOL      0.006678
     89 C30        -2.3340    2.2770    2.9430 c3        1 MOL     -0.361416
     90 C31        -1.4100    4.6020    4.7420 c3        1 MOL     -0.550278
     91 H36         0.4020    4.8660    0.9660 hn        1 MOL      0.223267
     92 H37        -0.6730    2.0940    1.3280 h1        1 MOL      0.060071
     93 H38        -2.3110    4.3360    2.1650 hc        1 MOL     -0.052600
     94 H39        -0.2810    5.0320    2.9970 hc        1 MOL      0.052314
     95 H40         0.0540    3.4740    3.7790 hc        1 MOL      0.052314
     96 H41        -2.9850    2.5380    3.7690 hc        1 MOL      0.061781
     97 H42        -3.0060    1.9660    2.1380 hc        1 MOL      0.061781
     98 H43        -1.6750    1.4520    3.2000 hc        1 MOL      0.061781
     99 H44        -2.3680    5.0250    4.4560 hc        1 MOL      0.142649
    100 H45        -1.6380    3.6850    5.2850 hc        1 MOL      0.142649
    101 H46        -0.7150    5.2090    5.3140 hc        1 MOL      0.142649
    102 N10        -2.0900    1.8670   -0.5270 n         1 MOL     -0.055397
    103 C32        -3.1280    1.6800   -1.5530 c3        1 MOL     -0.045485
    104 C33        -4.4660    1.2830   -1.0160 c         1 MOL      0.403827
    105 O16        -4.6200    0.9030    0.1490 o         1 MOL     -0.376728
    106 C34        -2.6000    0.6820   -2.5910 c3        1 MOL      0.068892
    107 C35        -1.2180    0.7720   -3.1620 c         1 MOL      0.610507
    108 O17        -0.1810    0.5870   -2.5050 o         1 MOL     -0.670120
    109 O18        -1.1480    1.0720   -4.3610 o         1 MOL     -0.670120
    110 H47        -1.6220    1.1010   -0.0540 hn        1 MOL      0.170575
    111 H48        -3.1690    2.5730   -2.1850 h1        1 MOL      0.065425
    112 H49        -3.3610    0.4400   -3.3360 hc        1 MOL     -0.028394
    113 H50        -2.7080   -0.2890   -2.0950 hc        1 MOL     -0.028394
    114 N11        -5.5340    1.3970   -1.7740 n         1 MOL     -0.549999
    115 C36        -6.8970    1.1590   -1.1970 c3        1 MOL      0.308989
    116 C37        -7.1180   -0.2570   -0.6950 c         1 MOL      0.264721
    117 O19        -7.6100   -0.4550    0.3860 o         1 MOL     -0.458768
    118 C38        -8.0200    1.7040   -2.0980 c3        1 MOL     -0.210802
    119 C39        -9.4590    1.3710   -1.5770 ca        1 MOL     -0.011739
    120 C40       -10.0950    2.2330   -0.6640 ca        1 MOL     -0.065278
    121 C41       -10.1420    0.2550   -2.0320 ca        1 MOL     -0.065278
    122 C42       -11.4140    2.0240   -0.2840 ca        1 MOL     -0.185917
    123 C43       -11.4460   -0.0130   -1.5660 ca        1 MOL     -0.185917
    124 C44       -12.0640    0.9180   -0.6850 ca        1 MOL     -0.019984
    125 H51        -5.4690    1.7000   -2.7360 hn        1 MOL      0.300193
    126 H52        -6.9520    1.6990   -0.2520 h1        1 MOL      0.055568
    127 H53        -7.9000    1.4680   -3.1540 hc        1 MOL      0.072610
    128 H54        -8.0580    2.8000   -2.0430 hc        1 MOL      0.072610
    129 H55        -9.6280    3.1330   -0.2940 ha        1 MOL      0.101351
    130 H56        -9.8420   -0.3040   -2.9040 ha        1 MOL      0.101351
    131 H57       -11.8650    2.6810    0.4510 ha        1 MOL      0.122651
    132 H58       -12.0040   -0.8680   -1.9150 ha        1 MOL      0.122651
    133 H59       -13.0890    0.7650   -0.3680 ha        1 MOL      0.075513
    134 N12        -6.5620   -1.3460   -1.3020 n         1 MOL     -0.012812
    135 C45        -6.4520   -2.6470   -0.7130 c3        1 MOL      0.085809
    136 C46        -5.6510   -2.8360    0.5680 c         1 MOL      0.199707
    137 O20        -5.8800   -3.6910    1.4080 o         1 MOL     -0.483724
    138 C47        -5.8380   -3.4930   -1.8140 c3        1 MOL     -0.000026
    139 C48        -6.3000   -2.8970   -3.1160 c3        1 MOL     -0.068199
    140 C49        -6.2140   -1.4120   -2.7440 c3        1 MOL     -0.212164
    141 H60        -7.4710   -2.9780   -0.5220 h1        1 MOL      0.048508
    142 H61        -4.7470   -3.5520   -1.8000 hc        1 MOL      0.021242
    143 H62        -6.2920   -4.4840   -1.7600 hc        1 MOL      0.021242
    144 H63        -5.6330   -3.1720   -3.9340 hc        1 MOL      0.042257
    145 H64        -7.3440   -3.0270   -3.3980 hc        1 MOL      0.042257
    146 H65        -5.1570   -1.1780   -2.9030 h1        1 MOL      0.101581
    147 H66        -6.9010   -0.8850   -3.4160 h1        1 MOL      0.101581
    148 N13        -4.6690   -2.0060    0.7120 n         1 MOL     -0.008822
    149 C50        -3.7670   -1.9260    1.9050 c3        1 MOL     -0.037858
    150 C51        -4.4050   -1.2280    3.1140 c         1 MOL      0.411902
    151 O21        -4.4430   -1.7260    4.2300 o         1 MOL     -0.535844
    152 C52        -2.3740   -1.3750    1.5580 c3        1 MOL     -0.280464
    153 C53        -1.6440   -2.0940    0.3680 c3        1 MOL     -0.029160
    154 C54        -0.3790   -1.3890   -0.0270 c         1 MOL      0.586586
    155 O22         0.6060   -1.9890   -0.5730 o         1 MOL     -0.733931
    156 O23        -0.2990   -0.1340    0.2050 o         1 MOL     -0.733931
    157 H67        -4.4310   -1.3570   -0.0210 hn        1 MOL      0.134365
    158 H68        -3.6810   -2.9620    2.2250 h1        1 MOL      0.109171
    159 H69        -1.6480   -1.5330    2.3580 hc        1 MOL      0.162050
    160 H70        -2.4470   -0.3110    1.3530 hc        1 MOL      0.162050
    161 H71        -2.3270   -2.0400   -0.4860 hc        1 MOL      0.049225
    162 H72        -1.5200   -3.1620    0.5240 hc        1 MOL      0.049225
    163 N14        -5.1550   -0.1420    2.8220 n         1 MOL     -0.057089
    164 C55        -6.0010    0.6460    3.7630 c3        1 MOL     -0.258193
    165 H73        -6.9760    0.8270    3.3110 h1        1 MOL      0.093395
    166 H74        -6.1300    0.0880    4.6910 h1        1 MOL      0.093395
    167 H75        -5.5180    1.6000    3.9760 h1        1 MOL      0.093395
    168 H76        -5.1140    0.1020    1.8460 hn        1 MOL      0.103963
    169 Ca1         1.9130    0.1220   -1.1310 Ca        1 MOL      1.663025
    170 O24         1.6170    2.4540   -2.7290 oh        1 MOL     -0.998080
    171 H77         1.6830    2.9360   -3.5520 ho        1 MOL      0.455954
    172 H78         0.7370    2.0710   -2.7460 ho        1 MOL      0.455954
@<TRIPOS>BOND
     1    1    2 1   
     2    1    4 1   
     3    1    5 1   
     4    1    6 1   
     5    2    3 2   
     6    2    7 1   
     7    7    8 1   
     8    7   15 1   
     9    8    9 1   
    10    8   11 1   
    11    8   16 1   
    12    9   10 2   
    13    9   19 1   
    14   11   12 1   
    15   11   17 1   
    16   11   18 1   
    17   12   13 1   
    18   12   14 1   
    19   19   20 1   
    20   19   24 1   
    21   20   21 1   
    22   20   23 1   
    23   20   25 1   
    24   21   22 2   
    25   21   29 1   
    26   23   26 1   
    27   23   27 1   
    28   23   28 1   
    29   29   30 1   
    30   29   37 1   
    31   30   31 1   
    32   30   33 1   
    33   30   38 1   
    34   31   32 2   
    35   31   41 1   
    36   33   34 1   
    37   33   39 1   
    38   33   40 1   
    39   34   35 1   
    40   34   36 1   
    41   41   42 1   
    42   41   45 1   
    43   42   43 1   
    44   42   46 1   
    45   42   47 1   
    46   43   44 2   
    47   43   48 1   
    48   48   49 1   
    49   48   56 1   
    50   49   50 1   
    51   49   52 1   
    52   49   57 1   
    53   50   51 2   
    54   50   62 1   
    55   52   53 1   
    56   52   58 1   
    57   52   59 1   
    58   53   54 1   
    59   53   55 2   
    60   54   60 1   
    61   54   61 1   
    62   62   63 1   
    63   62   66 1   
    64   63   64 1   
    65   63   67 1   
    66   63   68 1   
    67   64   65 2   
    68   64   69 1   
    69   69   70 1   
    70   69   76 1   
    71   70   71 1   
    72   70   73 1   
    73   70   77 1   
    74   71   72 2   
    75   71   83 1   
    76   73   74 1   
    77   73   75 1   
    78   73   78 1   
    79   74   80 1   
    80   74   81 1   
    81   74   82 1   
    82   75   79 1   
    83   83   84 1   
    84   83   91 1   
    85   84   85 1   
    86   84   87 1   
    87   84   92 1   
    88   85   86 2   
    89   85  102 1   
    90   87   88 1   
    91   87   89 1   
    92   87   93 1   
    93   88   90 1   
    94   88   94 1   
    95   88   95 1   
    96   89   96 1   
    97   89   97 1   
    98   89   98 1   
    99   90   99 1   
   100   90  100 1   
   101   90  101 1   
   102  102  103 1   
   103  102  110 1   
   104  103  104 1   
   105  103  106 1   
   106  103  111 1   
   107  104  105 2   
   108  104  114 1   
   109  106  107 1   
   110  106  112 1   
   111  106  113 1   
   112  107  108 1   
   113  107  109 1   
   114  114  115 1   
   115  114  125 1   
   116  115  116 1   
   117  115  118 1   
   118  115  126 1   
   119  116  117 2   
   120  116  134 1   
   121  118  119 1   
   122  118  127 1   
   123  118  128 1   
   124  119  120 ar  
   125  119  121 ar  
   126  120  122 ar  
   127  120  129 1   
   128  121  123 ar  
   129  121  130 1   
   130  122  124 ar  
   131  122  131 1   
   132  123  124 ar  
   133  123  132 1   
   134  124  133 1   
   135  134  135 1   
   136  134  140 1   
   137  135  136 1   
   138  135  138 1   
   139  135  141 1   
   140  136  137 2   
   141  136  148 1   
   142  138  139 1   
   143  138  142 1   
   144  138  143 1   
   145  139  140 1   
   146  139  144 1   
   147  139  145 1   
   148  140  146 1   
   149  140  147 1   
   150  148  149 1   
   151  148  157 1   
   152  149  150 1   
   153  149  152 1   
   154  149  158 1   
   155  150  151 2   
   156  150  163 1   
   157  152  153 1   
   158  152  159 1   
   159  152  160 1   
   160  153  154 1   
   161  153  161 1   
   162  153  162 1   
   163  154  155 1   
   164  154  156 1   
   165  163  164 1   
   166  163  168 1   
   167  164  165 1   
   168  164  166 1   
   169  164  167 1   
   170  170  171 1   
   171  170  172 1   
@<TRIPOS>SUBSTRUCTURE
     1 MOL         1 TEMP              0 ****  ****    0 ROOT
