@<TRIPOS>MOLECULE
MOL
  189   185     1     0     0
SMALL
resp


@<TRIPOS>ATOM
      1 C1          0.0720    2.2920    5.6330 c3        1 MOL     -0.414274
      2 C2         -0.3780    2.1330    4.1750 c         1 MOL      0.718734
      3 O1          0.4110    2.4060    3.3170 o         1 MOL     -0.606418
      4 H1          0.0070    3.3410    5.9210 hc        1 MOL      0.098588
      5 H2         -0.5730    1.6970    6.2800 hc        1 MOL      0.098588
      6 H3          1.1030    1.9510    5.7350 hc        1 MOL      0.098588
      7 N1         -1.6120    1.6550    3.9480 n         1 MOL     -0.562544
      8 C3         -2.2000    1.4980    2.6270 c3        1 MOL      0.334066
      9 C4         -2.7200    2.8570    2.1170 c         1 MOL      0.220362
     10 O2         -3.7760    3.3310    2.5730 o         1 MOL     -0.496203
     11 C5         -3.1030    0.2490    2.5490 c3        1 MOL     -0.504582
     12 C6         -3.9040    0.2400    1.2510 c         1 MOL      0.906965
     13 O3         -3.2970    0.6660    0.2780 o         1 MOL     -0.713095
     14 O4         -5.0540   -0.2740    1.2140 o         1 MOL     -0.713095
     15 H4         -2.2000    1.5780    4.7700 hn        1 MOL      0.309074
     16 H5         -1.2950    1.3900    2.0280 h1        1 MOL      0.033132
     17 H6         -3.7890    0.2700    3.3950 hc        1 MOL      0.116419
     18 H7         -2.5130   -0.6680    2.4810 hc        1 MOL      0.116419
     19 N2         -1.9950    3.4960    1.1420 n         1 MOL     -0.118425
     20 C7         -2.3880    4.8020    0.5920 c3        1 MOL     -0.001110
     21 C8         -3.3920    4.8070   -0.5670 c         1 MOL      0.456901
     22 O5         -3.6490    5.8240   -1.2350 o         1 MOL     -0.542778
     23 C9         -1.1360    5.6740    0.3250 c3        1 MOL     -0.103393
     24 C10        -0.2240    5.8250    1.5870 c3        1 MOL      0.166887
     25 C11        -0.9310    6.5530    2.7410 c3        1 MOL     -0.063175
     26 C12         0.1510    7.2960    3.5770 c3        1 MOL     -0.207161
     27 N3          1.1580    6.3840    4.2810 n4        1 MOL     -0.224179
     28 H8         -1.1620    3.0550    0.7810 hn        1 MOL      0.358870
     29 H9         -2.9450    5.2990    1.3840 h1        1 MOL      0.037896
     30 H10        -1.3740    6.6730   -0.0260 hc        1 MOL      0.044717
     31 H11        -0.4500    5.1810   -0.3710 hc        1 MOL      0.044717
     32 H12         0.6410    6.4120    1.2690 hc        1 MOL     -0.033013
     33 H13         0.0870    4.8220    1.9000 hc        1 MOL     -0.033013
     34 H14        -1.5100    5.8140    3.2920 hc        1 MOL      0.066280
     35 H15        -1.6190    7.2890    2.3420 hc        1 MOL      0.066280
     36 H16        -0.3220    7.8270    4.3920 hx        1 MOL      0.143884
     37 H17         0.6730    7.9650    2.8800 hx        1 MOL      0.143884
     38 H18         0.6670    5.7900    4.9450 hn        1 MOL      0.294578
     39 H19         1.7090    5.8410    3.6300 hn        1 MOL      0.294578
     40 H20         1.8670    6.8230    4.8510 hn        1 MOL      0.294578
     41 N4         -3.9360    3.6310   -0.8770 n         1 MOL     -0.056931
     42 C13        -4.9630    3.3750   -1.9440 c3        1 MOL     -0.181585
     43 C14        -6.3230    2.8080   -1.4340 c         1 MOL      0.336177
     44 O6         -7.4270    3.0840   -2.0650 o         1 MOL     -0.471337
     45 C15        -4.5060    2.4030   -2.9920 c3        1 MOL      0.146945
     46 C16        -3.0500    2.5090   -3.4440 c         1 MOL      0.601131
     47 O7         -2.3180    1.6410   -3.0370 o         1 MOL     -0.654791
     48 O8         -2.7850    3.3630   -4.3830 o         1 MOL     -0.654791
     49 H21        -3.6350    2.7850   -0.3990 hn        1 MOL     -0.060600
     50 H22        -5.1940    4.3140   -2.4370 h1        1 MOL      0.125076
     51 H23        -5.1100    2.5220   -3.8940 hc        1 MOL     -0.010623
     52 H24        -4.6680    1.3860   -2.6390 hc        1 MOL     -0.010623
     53 N5         -6.3440    2.1250   -0.2490 n         1 MOL     -0.179223
     54 C17        -7.4790    1.3540    0.1860 c3        1 MOL     -0.201375
     55 C18        -7.8350    0.2630   -0.7910 c         1 MOL      0.441419
     56 O9         -8.9850    0.0450   -1.1060 o         1 MOL     -0.521979
     57 H25        -5.5180    2.1400    0.3320 hn        1 MOL      0.211567
     58 H26        -8.3080    2.0460    0.3020 h1        1 MOL      0.116501
     59 H27        -7.2590    0.9320    1.1570 h1        1 MOL      0.116501
     60 N6         -6.7910   -0.4250   -1.3540 n         1 MOL     -0.154077
     61 C19        -6.9800   -1.7460   -2.0070 c3        1 MOL     -0.070638
     62 C20        -6.9630   -2.9360   -0.9840 c         1 MOL      0.385280
     63 O10        -7.1620   -4.0480   -1.4630 o         1 MOL     -0.505297
     64 C21        -5.8560   -1.8510   -3.0440 c3        1 MOL     -0.176799
     65 C22        -4.4380   -1.6710   -2.5510 c         1 MOL      0.724882
     66 O11        -3.6460   -0.9500   -3.2240 o         1 MOL     -0.745449
     67 O12        -3.9750   -2.0860   -1.4710 o         1 MOL     -0.745449
     68 H28        -5.9560   -0.3270   -0.8050 hn        1 MOL      0.153459
     69 H29        -7.9420   -1.7900   -2.5160 h1        1 MOL      0.129165
     70 H30        -6.0540   -1.1160   -3.8230 hc        1 MOL      0.068753
     71 H31        -5.9490   -2.8080   -3.5530 hc        1 MOL      0.068753
     72 N7         -6.5530   -2.6600    0.2690 n         1 MOL     -0.178623
     73 C23        -6.4260   -3.6350    1.3170 c3        1 MOL     -0.209895
     74 C24        -5.0900   -4.3760    1.4050 c         1 MOL      0.559175
     75 O13        -5.0240   -5.5010    1.9060 o         1 MOL     -0.546475
     76 H32        -6.3970   -1.6820    0.4560 hn        1 MOL      0.234106
     77 H33        -7.1630   -4.4450    1.2960 h1        1 MOL      0.103197
     78 H34        -6.6010   -3.0330    2.2150 h1        1 MOL      0.103197
     79 N8         -4.0310   -3.7450    0.8760 n         1 MOL     -0.399580
     80 C25        -2.7530   -4.4160    0.7790 c3        1 MOL     -0.126173
     81 C26        -1.5290   -3.3960    0.7970 c         1 MOL      0.643447
     82 O14        -1.5930   -2.3820    0.1120 o         1 MOL     -0.661180
     83 C27        -2.5720   -5.2510   -0.5000 c3        1 MOL      0.485981
     84 C28        -3.5200   -6.5050   -0.5680 c3        1 MOL     -0.475506
     85 O15        -2.8590   -4.5540   -1.6870 oh        1 MOL     -0.675645
     86 H35        -4.2010   -2.9820    0.2360 hn        1 MOL      0.332820
     87 H36        -2.6870   -5.1280    1.6070 h1        1 MOL      0.082554
     88 H37        -1.5510   -5.6220   -0.5070 h1        1 MOL     -0.031150
     89 H38        -3.4060   -3.7670   -1.6570 ho        1 MOL      0.447880
     90 H39        -4.5620   -6.2160   -0.7160 hc        1 MOL      0.123041
     91 H40        -3.3330   -7.2320   -1.3510 hc        1 MOL      0.123041
     92 H41        -3.4410   -6.9510    0.4230 hc        1 MOL      0.123041
     93 N9         -0.4780   -3.7610    1.4700 n         1 MOL     -0.498149
     94 C29         0.7200   -2.9760    1.7910 c3        1 MOL     -0.043383
     95 C30         1.8690   -3.5870    0.9870 c         1 MOL      0.519696
     96 O16         2.3320   -4.7050    1.2580 o         1 MOL     -0.530185
     97 C31         0.9320   -2.9910    3.3310 c3        1 MOL      0.024896
     98 C32        -0.3300   -2.4010    4.0510 c3        1 MOL      0.177990
     99 C33         2.3280   -2.3450    3.7860 c3        1 MOL     -0.363388
    100 C34        -0.1030   -2.5230    5.4920 c3        1 MOL     -0.226525
    101 H42        -0.6990   -4.6440    1.9150 hn        1 MOL      0.268635
    102 H43         0.6100   -1.9020    1.6420 h1        1 MOL      0.167739
    103 H44         1.1310   -4.0170    3.6280 hc        1 MOL      0.040246
    104 H45        -1.2450   -2.8930    3.7410 hc        1 MOL     -0.011097
    105 H46        -0.4200   -1.3420    3.8200 hc        1 MOL     -0.011097
    106 H47         3.1240   -2.5790    3.0900 hc        1 MOL      0.105723
    107 H48         2.1510   -1.2910    3.9730 hc        1 MOL      0.105723
    108 H49         2.7050   -2.7250    4.7340 hc        1 MOL      0.105723
    109 H50         0.2320   -3.5220    5.7610 hc        1 MOL      0.044991
    110 H51         0.7240   -1.9390    5.8870 hc        1 MOL      0.044991
    111 H52        -1.0240   -2.2370    6.0000 hc        1 MOL      0.044991
    112 N10         2.4150   -2.7500    0.1090 n         1 MOL     -0.316741
    113 C35         3.6510   -3.0840   -0.6790 c3        1 MOL     -0.030167
    114 C36         4.9920   -2.7680    0.0400 c         1 MOL      0.344795
    115 O17         4.9940   -1.9220    0.9810 o         1 MOL     -0.297945
    116 C37         3.5440   -2.3600   -2.0300 c3        1 MOL      0.220781
    117 C38         2.3960   -2.8990   -2.8700 c3        1 MOL     -0.515397
    118 O18         3.3460   -0.9580   -1.8720 oh        1 MOL     -0.588118
    119 H53         1.8900   -1.9470   -0.2090 hn        1 MOL      0.315811
    120 H54         3.6000   -4.1510   -0.9030 h1        1 MOL      0.080662
    121 H55         4.4800   -2.4370   -2.5920 h1        1 MOL      0.037252
    122 H56         2.4600   -0.8280   -1.5060 ho        1 MOL      0.463606
    123 H57         2.1660   -2.2250   -3.6920 hc        1 MOL      0.147286
    124 H58         2.6770   -3.8640   -3.3060 hc        1 MOL      0.147286
    125 H59         1.4340   -2.9700   -2.3720 hc        1 MOL      0.147286
    126 N11         6.1410   -3.1880   -0.4510 n         1 MOL     -0.273225
    127 C39         7.4880   -2.8000   -0.0150 c3        1 MOL     -0.257733
    128 C40         7.7320   -1.2820   -0.0750 c         1 MOL      0.459370
    129 O19         8.1560   -0.7250    0.9130 o         1 MOL     -0.465299
    130 C41         8.5880   -3.6000   -0.6870 c3        1 MOL      0.471204
    131 C42        10.0090   -3.5220   -0.0240 c3        1 MOL     -0.221818
    132 O20         8.2400   -4.9710   -0.7490 oh        1 MOL     -0.596952
    133 H60         5.9760   -3.7260   -1.2900 hn        1 MOL      0.218280
    134 H61         7.5020   -3.0350    1.0530 h1        1 MOL      0.153791
    135 H62         8.7300   -3.2000   -1.6840 h1        1 MOL     -0.074864
    136 H63         7.3860   -4.9720   -1.1770 ho        1 MOL      0.363168
    137 H64        10.3130   -2.4810   -0.0790 hc        1 MOL      0.072992
    138 H65         9.9990   -3.6640    1.0530 hc        1 MOL      0.072992
    139 H66        10.8020   -4.0930   -0.5060 hc        1 MOL      0.072992
    140 N12         7.3820   -0.6500   -1.1880 n         1 MOL     -0.338025
    141 C43         7.4170    0.8000   -1.4080 c3        1 MOL     -0.105768
    142 C44         6.5380    1.6040   -0.3910 c         1 MOL      0.418799
    143 O21         6.9870    2.6610    0.0320 o         1 MOL     -0.526753
    144 C45         6.7980    1.0080   -2.8300 c3        1 MOL     -0.213670
    145 C46         7.1330    2.4540   -3.2350 c3        1 MOL     -0.005681
    146 C47         6.8180    2.7890   -4.7230 c3        1 MOL     -0.203438
    147 C48         7.2280    4.2900   -5.0290 c3        1 MOL      0.143691
    148 N13         6.8560    4.5900   -6.4280 n4        1 MOL     -0.471102
    149 H67         6.9530   -1.1930   -1.9200 hn        1 MOL      0.248907
    150 H68         8.4470    1.1250   -1.4080 h1        1 MOL      0.147140
    151 H69         5.7230    0.8260   -2.8450 hc        1 MOL      0.093015
    152 H70         7.2490    0.2330   -3.4350 hc        1 MOL      0.093015
    153 H71         8.1600    2.7070   -2.9870 hc        1 MOL      0.055242
    154 H72         6.5340    3.1640   -2.6600 hc        1 MOL      0.055242
    155 H73         5.7430    2.7830   -4.8830 hc        1 MOL      0.089538
    156 H74         7.2350    2.0290   -5.3770 hc        1 MOL      0.089538
    157 H75         8.3000    4.4800   -4.9190 hx        1 MOL      0.069686
    158 H76         6.7740    4.9660   -4.3060 hx        1 MOL      0.069686
    159 H77         5.8770    4.4010   -6.5850 hn        1 MOL      0.331671
    160 H78         6.9820    5.5630   -6.6710 hn        1 MOL      0.331671
    161 H79         7.5700    4.0800   -6.9380 hn        1 MOL      0.331671
    162 N14         5.4010    1.1200    0.0610 n         1 MOL     -0.088822
    163 C49         4.4350    1.6360    1.0940 c3        1 MOL     -0.109396
    164 C50         4.9220    1.5490    2.5280 c         1 MOL      0.495023
    165 O22         5.1180    2.5360    3.2430 o         1 MOL     -0.572489
    166 C51         3.0630    0.9250    1.0350 c3        1 MOL      0.224403
    167 C52         2.1570    1.7590    0.0480 c3        1 MOL     -0.183728
    168 C53         0.8200    1.0230   -0.2510 c         1 MOL      0.890892
    169 O23         0.8450   -0.1860   -0.5310 o         1 MOL     -0.880565
    170 O24        -0.2540    1.6800   -0.2930 o         1 MOL     -0.880565
    171 H80         5.0750    0.2980   -0.4300 hn        1 MOL      0.196668
    172 H81         4.3540    2.6930    0.8370 h1        1 MOL      0.060430
    173 H82         2.5030    0.9180    1.9710 hc        1 MOL     -0.082255
    174 H83         3.2080   -0.0780    0.6350 hc        1 MOL     -0.082255
    175 H84         2.6900    1.7860   -0.9050 hc        1 MOL      0.011435
    176 H85         2.0040    2.7190    0.5220 hc        1 MOL      0.011435
    177 N15         5.2640    0.3590    3.0260 n         1 MOL     -0.074163
    178 C54         5.7150    0.0330    4.3920 c3        1 MOL     -0.318583
    179 H86         6.0440   -1.0060    4.4270 h1        1 MOL      0.121337
    180 H87         6.5440    0.6850    4.6660 h1        1 MOL      0.121337
    181 H88         4.8910    0.1750    5.0910 h1        1 MOL      0.121337
    182 H89         5.1360   -0.4440    2.4300 hn        1 MOL      0.066077
    183 Ca1        -1.7610   -0.3180   -1.6050 Ca        1 MOL      1.829322
    184 O25        -0.1080    0.3410   -3.9700 oh        1 MOL     -0.827938
    185 H90         0.5170    0.8190   -4.5200 ho        1 MOL      0.386571
    186 H91        -0.9120    0.8500   -4.0190 ho        1 MOL      0.386571
    187 O26        -0.9900   -2.5180   -2.8780 oh        1 MOL     -0.827938
    188 H92        -0.5590   -2.5760   -3.7290 ho        1 MOL      0.386571
    189 H93        -1.4880   -3.3310   -2.8140 ho        1 MOL      0.386571
@<TRIPOS>BOND
     1    1    2 1   
     2    1    4 1   
     3    1    5 1   
     4    1    6 1   
     5    2    3 2   
     6    2    7 1   
     7    7    8 1   
     8    7   15 1   
     9    8    9 1   
    10    8   11 1   
    11    8   16 1   
    12    9   10 2   
    13    9   19 1   
    14   11   12 1   
    15   11   17 1   
    16   11   18 1   
    17   12   13 1   
    18   12   14 1   
    19   19   20 1   
    20   19   28 1   
    21   20   21 1   
    22   20   23 1   
    23   20   29 1   
    24   21   22 2   
    25   21   41 1   
    26   23   24 1   
    27   23   30 1   
    28   23   31 1   
    29   24   25 1   
    30   24   32 1   
    31   24   33 1   
    32   25   26 1   
    33   25   34 1   
    34   25   35 1   
    35   26   27 1   
    36   26   36 1   
    37   26   37 1   
    38   27   38 1   
    39   27   39 1   
    40   27   40 1   
    41   41   42 1   
    42   41   49 1   
    43   42   43 1   
    44   42   45 1   
    45   42   50 1   
    46   43   44 2   
    47   43   53 1   
    48   45   46 1   
    49   45   51 1   
    50   45   52 1   
    51   46   47 1   
    52   46   48 1   
    53   53   54 1   
    54   53   57 1   
    55   54   55 1   
    56   54   58 1   
    57   54   59 1   
    58   55   56 2   
    59   55   60 1   
    60   60   61 1   
    61   60   68 1   
    62   61   62 1   
    63   61   64 1   
    64   61   69 1   
    65   62   63 2   
    66   62   72 1   
    67   64   65 1   
    68   64   70 1   
    69   64   71 1   
    70   65   66 1   
    71   65   67 1   
    72   72   73 1   
    73   72   76 1   
    74   73   74 1   
    75   73   77 1   
    76   73   78 1   
    77   74   75 2   
    78   74   79 1   
    79   79   80 1   
    80   79   86 1   
    81   80   81 1   
    82   80   83 1   
    83   80   87 1   
    84   81   82 2   
    85   81   93 1   
    86   83   84 1   
    87   83   85 1   
    88   83   88 1   
    89   84   90 1   
    90   84   91 1   
    91   84   92 1   
    92   85   89 1   
    93   93   94 1   
    94   93  101 1   
    95   94   95 1   
    96   94   97 1   
    97   94  102 1   
    98   95   96 2   
    99   95  112 1   
   100   97   98 1   
   101   97   99 1   
   102   97  103 1   
   103   98  100 1   
   104   98  104 1   
   105   98  105 1   
   106   99  106 1   
   107   99  107 1   
   108   99  108 1   
   109  100  109 1   
   110  100  110 1   
   111  100  111 1   
   112  112  113 1   
   113  112  119 1   
   114  113  114 1   
   115  113  116 1   
   116  113  120 1   
   117  114  115 2   
   118  114  126 1   
   119  116  117 1   
   120  116  118 1   
   121  116  121 1   
   122  117  123 1   
   123  117  124 1   
   124  117  125 1   
   125  118  122 1   
   126  126  127 1   
   127  126  133 1   
   128  127  128 1   
   129  127  130 1   
   130  127  134 1   
   131  128  129 2   
   132  128  140 1   
   133  130  131 1   
   134  130  132 1   
   135  130  135 1   
   136  131  137 1   
   137  131  138 1   
   138  131  139 1   
   139  132  136 1   
   140  140  141 1   
   141  140  149 1   
   142  141  142 1   
   143  141  144 1   
   144  141  150 1   
   145  142  143 2   
   146  142  162 1   
   147  144  145 1   
   148  144  151 1   
   149  144  152 1   
   150  145  146 1   
   151  145  153 1   
   152  145  154 1   
   153  146  147 1   
   154  146  155 1   
   155  146  156 1   
   156  147  148 1   
   157  147  157 1   
   158  147  158 1   
   159  148  159 1   
   160  148  160 1   
   161  148  161 1   
   162  162  163 1   
   163  162  171 1   
   164  163  164 1   
   165  163  166 1   
   166  163  172 1   
   167  164  165 2   
   168  164  177 1   
   169  166  167 1   
   170  166  173 1   
   171  166  174 1   
   172  167  168 1   
   173  167  175 1   
   174  167  176 1   
   175  168  169 1   
   176  168  170 1   
   177  177  178 1   
   178  177  182 1   
   179  178  179 1   
   180  178  180 1   
   181  178  181 1   
   182  184  185 1   
   183  184  186 1   
   184  187  188 1   
   185  187  189 1   
@<TRIPOS>SUBSTRUCTURE
     1 MOL         1 TEMP              0 ****  ****    0 ROOT
