@<TRIPOS>MOLECULE
MOL
  189   185     1     0     0
SMALL
resp


@<TRIPOS>ATOM
      1 C1          0.5330   -1.5700    6.5100 c3        1 MOL     -0.531563
      2 C2          0.8950   -1.7020    4.9800 c         1 MOL      0.765040
      3 O1          0.8620   -0.7930    4.1950 o         1 MOL     -0.656499
      4 H1         -0.3110   -2.2220    6.7400 hc        1 MOL      0.140532
      5 H2          1.3920   -1.8610    7.1130 hc        1 MOL      0.140532
      6 H3          0.2650   -0.5370    6.7320 hc        1 MOL      0.140532
      7 N1          1.2920   -2.8760    4.5510 n         1 MOL     -0.632295
      8 C3          1.9300   -3.1270    3.2820 c3        1 MOL      0.286302
      9 C4          1.5730   -4.4310    2.5740 c         1 MOL      0.433038
     10 O2          1.3920   -5.4680    3.1940 o         1 MOL     -0.570879
     11 C5          3.3950   -2.9010    3.3540 c3        1 MOL     -0.200755
     12 C6          4.1750   -2.7120    2.0600 c         1 MOL      0.727828
     13 O3          5.3980   -2.9490    2.1090 o         1 MOL     -0.679875
     14 O4          3.6220   -2.3150    1.0450 o         1 MOL     -0.679875
     15 H4          1.2620   -3.6350    5.2160 hn        1 MOL      0.290673
     16 H5          1.4560   -2.4120    2.6080 h1        1 MOL      0.179360
     17 H6          3.8930   -3.6740    3.9420 hc        1 MOL      0.011898
     18 H7          3.5490   -1.9500    3.8540 hc        1 MOL      0.011898
     19 N2          1.5150   -4.3440    1.2330 n         1 MOL     -0.318540
     20 C7          1.6160   -5.5430    0.3660 c3        1 MOL     -0.049046
     21 C8          2.6670   -5.4570   -0.8170 c         1 MOL      0.485115
     22 O5          2.6290   -6.3230   -1.6650 o         1 MOL     -0.560146
     23 C9          0.2720   -5.9300   -0.2210 c3        1 MOL      0.107531
     24 C10        -0.4270   -4.8670   -1.0810 c3        1 MOL      0.398605
     25 C11        -0.7920   -6.4460    0.7140 c3        1 MOL     -0.195196
     26 C12        -1.1950   -5.4890   -2.2900 c3        1 MOL     -0.465345
     27 H8          1.6380   -3.4090    0.8870 hn        1 MOL      0.233857
     28 H9          2.0130   -6.3530    0.9870 h1        1 MOL      0.083804
     29 H10         0.5170   -6.7300   -0.9190 hc        1 MOL     -0.023530
     30 H11         0.3320   -4.1660   -1.4250 hc        1 MOL     -0.059892
     31 H12        -1.0460   -4.2940   -0.4000 hc        1 MOL     -0.059892
     32 H13        -1.0900   -5.8460    1.5750 hc        1 MOL      0.031174
     33 H14        -1.6680   -6.7820    0.1560 hc        1 MOL      0.031174
     34 H15        -0.4690   -7.3730    1.1860 hc        1 MOL      0.031174
     35 H16        -1.3980   -4.6630   -2.9720 hc        1 MOL      0.098946
     36 H17        -0.6430   -6.2530   -2.8400 hc        1 MOL      0.098946
     37 H18        -2.0780   -5.9670   -1.8660 hc        1 MOL      0.098946
     38 N3          3.4400   -4.3870   -0.9640 n         1 MOL     -0.399637
     39 C13         4.3150   -4.2360   -2.1380 c3        1 MOL      0.051980
     40 C14         5.6710   -3.5220   -1.9070 c         1 MOL      0.448435
     41 O6          6.4880   -3.6160   -2.7810 o         1 MOL     -0.566340
     42 C15         3.4600   -3.6370   -3.2510 c3        1 MOL     -0.180576
     43 C16         2.9290   -2.2420   -2.9160 c         1 MOL      0.824806
     44 O7          3.5700   -1.5810   -2.0740 o         1 MOL     -0.732548
     45 O8          2.0010   -1.7720   -3.5640 o         1 MOL     -0.732548
     46 H19         3.3660   -3.6730   -0.2640 hn        1 MOL      0.189650
     47 H20         4.5590   -5.2520   -2.4620 h1        1 MOL      0.087145
     48 H21         2.6340   -4.3240   -3.4410 hc        1 MOL      0.049970
     49 H22         4.1060   -3.6160   -4.1260 hc        1 MOL      0.049970
     50 N4          5.9660   -2.8840   -0.7460 n         1 MOL     -0.229685
     51 C17         7.2710   -2.2400   -0.5330 c3        1 MOL     -0.211381
     52 C18         7.3920   -0.7590   -0.9820 c         1 MOL      0.555369
     53 O9          8.3670   -0.0860   -0.6050 o         1 MOL     -0.620031
     54 H23         5.2410   -2.7580   -0.0600 hn        1 MOL      0.196935
     55 H24         8.0530   -2.8200   -1.0090 h1        1 MOL      0.110411
     56 H25         7.4480   -2.3890    0.5370 h1        1 MOL      0.110411
     57 N5          6.5030   -0.2530   -1.8670 n         1 MOL     -0.308988
     58 C19         6.7670    1.0230   -2.5810 c3        1 MOL      0.072140
     59 C20         7.2660    2.2380   -1.7300 c         1 MOL      0.465477
     60 O10         8.0440    3.1030   -2.2040 o         1 MOL     -0.597979
     61 C21         5.5400    1.4280   -3.3670 c3        1 MOL     -0.415755
     62 C22         4.1590    1.6370   -2.7320 c         1 MOL      0.839484
     63 O11         4.0190    1.4810   -1.5000 o         1 MOL     -0.701731
     64 O12         3.2320    1.9580   -3.4820 o         1 MOL     -0.701731
     65 H26         5.6200   -0.7330   -1.9600 hn        1 MOL      0.240478
     66 H27         7.6610    0.8180   -3.1720 h1        1 MOL      0.060245
     67 H28         5.4050    0.5960   -4.0630 hc        1 MOL      0.102734
     68 H29         5.7590    2.2690   -4.0310 hc        1 MOL      0.102734
     69 N6          6.7660    2.2300   -0.5260 n         1 MOL     -0.063845
     70 C23         6.8800    3.2280    0.5700 c3        1 MOL     -0.302648
     71 C24         5.6210    3.9610    1.0640 c         1 MOL      0.511102
     72 O13         5.7400    4.8700    1.8880 o         1 MOL     -0.592672
     73 H30         6.1880    1.4650   -0.2140 hn        1 MOL      0.223387
     74 H31         7.5990    3.9850    0.2430 h1        1 MOL      0.121257
     75 H32         7.2800    2.6930    1.4340 h1        1 MOL      0.121257
     76 N7          4.4170    3.7020    0.5640 n         1 MOL     -0.177498
     77 C25         3.2090    4.4840    0.8510 c3        1 MOL      0.031492
     78 C26         2.0570    3.5140    1.1530 c         1 MOL      0.380566
     79 O14         2.0120    2.4530    0.5760 o         1 MOL     -0.479779
     80 C27         2.8970    5.3820   -0.3830 c3        1 MOL     -0.019007
     81 C28         3.9450    6.5840   -0.5140 c3        1 MOL     -0.318089
     82 C29         3.4860    7.6220   -1.4750 c         1 MOL      0.674130
     83 N8          3.1240    7.3010   -2.7040 n         1 MOL     -0.820103
     84 O15         3.3640    8.7980   -1.1190 o         1 MOL     -0.599942
     85 H33         4.3140    3.0970   -0.2400 hn        1 MOL      0.097984
     86 H34         3.3630    5.0320    1.7820 h1        1 MOL      0.053479
     87 H35         1.8890    5.7730   -0.3300 hc        1 MOL      0.067504
     88 H36         2.9270    4.7820   -1.2930 hc        1 MOL      0.067504
     89 H37         4.9020    6.2290   -0.9030 hc        1 MOL      0.122724
     90 H38         4.1110    6.9990    0.4890 hc        1 MOL      0.122724
     91 H39         3.2540    6.3580   -3.0400 hn        1 MOL      0.375479
     92 H40         2.7790    8.0510   -3.2790 hn        1 MOL      0.375479
     93 N9          0.9960    3.9080    1.9270 n         1 MOL     -0.381721
     94 C30        -0.2650    3.1570    2.1510 c3        1 MOL      0.031445
     95 C31        -1.2070    3.4590    0.9310 c         1 MOL      0.383808
     96 O16        -1.6830    4.6240    0.7440 o         1 MOL     -0.571790
     97 C32        -0.9680    3.4530    3.5020 c3        1 MOL      0.089849
     98 C33        -2.4490    3.2570    3.5080 c3        1 MOL     -0.156300
     99 C34        -0.3440    2.5710    4.5340 c3        1 MOL     -0.156300
    100 H41         1.0340    4.8570    2.2650 hn        1 MOL      0.245449
    101 H42         0.0540    2.1190    2.1470 h1        1 MOL      0.142373
    102 H43        -0.8680    4.5050    3.7620 hc        1 MOL      0.018594
    103 H44        -2.7170    2.2540    3.1680 hc        1 MOL      0.026944
    104 H45        -2.8290    3.3870    4.5170 hc        1 MOL      0.026944
    105 H46        -2.9650    3.9300    2.8280 hc        1 MOL      0.026944
    106 H47        -0.6820    1.5540    4.3300 hc        1 MOL      0.026944
    107 H48         0.7420    2.6720    4.4280 hc        1 MOL      0.026944
    108 H49        -0.6200    2.8920    5.5380 hc        1 MOL      0.026944
    109 N10        -1.4280    2.4840    0.0400 n         1 MOL     -0.066520
    110 C35        -2.4050    2.7100   -1.0840 c3        1 MOL      0.126583
    111 C36        -3.8150    2.4000   -0.6550 c         1 MOL      0.272251
    112 O17        -3.9260    1.9030    0.4830 o         1 MOL     -0.340144
    113 C37        -1.8870    1.9110   -2.3070 c3        1 MOL     -0.144294
    114 C38        -2.3320    0.4230   -2.4430 c         1 MOL      0.593158
    115 N11        -1.5380   -0.4920   -2.0200 n         1 MOL     -0.620070
    116 O18        -3.3540    0.0840   -3.0570 o         1 MOL     -0.580547
    117 H50        -1.1050    1.5290    0.1740 hn        1 MOL      0.028727
    118 H51        -2.3580    3.7500   -1.4070 h1        1 MOL      0.041796
    119 H52        -0.8010    2.0170   -2.2680 hc        1 MOL      0.035482
    120 H53        -2.4070    2.3270   -3.1670 hc        1 MOL      0.035482
    121 H54        -0.6870   -0.2420   -1.5470 hn        1 MOL      0.360581
    122 H55        -1.7130   -1.4160   -2.3830 hn        1 MOL      0.360581
    123 N12        -4.8170    2.5350   -1.4770 n         1 MOL     -0.327236
    124 C39        -6.1640    2.2030   -1.0350 c3        1 MOL      0.135841
    125 C40        -6.3480    0.7490   -0.5350 c         1 MOL      0.594735
    126 O19        -7.0570    0.5420    0.4760 o         1 MOL     -0.521252
    127 C41        -7.1850    2.6200   -2.1560 c3        1 MOL     -0.267973
    128 C42        -8.5910    2.2010   -1.7920 ca        1 MOL      0.045882
    129 C43        -9.2230    2.9220   -0.7660 ca        1 MOL     -0.137009
    130 C44        -9.2590    1.1480   -2.4790 ca        1 MOL     -0.137009
    131 C45       -10.4620    2.5150   -0.2880 ca        1 MOL     -0.314260
    132 C46       -10.5280    0.8500   -2.0330 ca        1 MOL     -0.314260
    133 C47       -11.1050    1.4620   -0.8780 ca        1 MOL      0.387345
    134 O20       -12.2490    0.8880   -0.3530 oh        1 MOL     -0.551444
    135 H56        -4.6350    2.8280   -2.4240 hn        1 MOL      0.260960
    136 H57        -6.4100    2.8090   -0.1710 h1        1 MOL      0.012584
    137 H58        -6.8980    2.1390   -3.0910 hc        1 MOL      0.088611
    138 H59        -7.1360    3.7060   -2.2970 hc        1 MOL      0.088611
    139 H60        -8.7020    3.7270   -0.2610 ha        1 MOL      0.149064
    140 H61        -8.7390    0.5070   -3.1750 ha        1 MOL      0.149064
    141 H62       -10.7800    3.0350    0.6090 ha        1 MOL      0.159100
    142 H63       -11.0050   -0.0160   -2.4690 ha        1 MOL      0.159100
    143 H64       -12.5580    0.2080   -0.9540 ho        1 MOL      0.389007
    144 N13        -5.7930   -0.2690   -1.2230 n         1 MOL     -0.077811
    145 C48        -5.7200   -1.6610   -0.7500 c3        1 MOL     -0.358524
    146 C49        -5.1020   -1.8160    0.6660 c         1 MOL      0.430416
    147 O21        -5.3220   -2.8130    1.3200 o         1 MOL     -0.515515
    148 C50        -4.8520   -2.5930   -1.6180 c3        1 MOL      0.400387
    149 C51        -5.2610   -2.6780   -3.0730 c3        1 MOL     -0.421999
    150 C52        -6.6690   -3.1710   -3.3110 c         1 MOL      0.804145
    151 O22        -7.3100   -3.8200   -2.4770 o         1 MOL     -0.758129
    152 O23        -7.2060   -2.8150   -4.3410 o         1 MOL     -0.758129
    153 H65        -5.3030    0.1030   -2.0200 hn        1 MOL      0.116587
    154 H66        -6.7470   -2.0130   -0.7100 h1        1 MOL      0.183405
    155 H67        -4.9030   -3.6090   -1.2360 hc        1 MOL     -0.054614
    156 H68        -3.8200   -2.2720   -1.4930 hc        1 MOL     -0.054614
    157 H69        -4.5540   -3.3960   -3.4900 hc        1 MOL      0.059080
    158 H70        -5.0070   -1.7670   -3.6250 hc        1 MOL      0.059080
    159 N14        -4.2750   -0.8770    1.1270 n         1 MOL     -0.293558
    160 C53        -3.5530   -0.9760    2.4190 c3        1 MOL     -0.033363
    161 C54        -4.2210   -0.2870    3.6080 c         1 MOL      0.464624
    162 O24        -3.9250   -0.6450    4.7040 o         1 MOL     -0.578263
    163 C55        -2.1100   -0.5180    2.2000 c3        1 MOL      0.090233
    164 C56        -1.3130   -1.6470    1.5550 c3        1 MOL     -0.469372
    165 C57        -0.0770   -1.2310    0.7190 c         1 MOL      0.533256
    166 O25         0.7990   -2.0170    0.3350 o         1 MOL     -0.646022
    167 O26         0.0760   -0.0020    0.4260 o         1 MOL     -0.646022
    168 H71        -4.2710    0.0660    0.7770 hn        1 MOL      0.115190
    169 H72        -3.5120   -2.0300    2.7070 h1        1 MOL      0.085100
    170 H73        -1.7540   -0.1950    3.1810 hc        1 MOL      0.086567
    171 H74        -2.2430    0.3410    1.5450 hc        1 MOL      0.086567
    172 H75        -2.0950   -2.1090    0.9480 hc        1 MOL      0.145950
    173 H76        -1.0150   -2.2450    2.4150 hc        1 MOL      0.145950
    174 N15        -5.1150    0.6070    3.2990 n         1 MOL     -0.039504
    175 C58        -5.8250    1.4910    4.2190 c3        1 MOL     -0.161438
    176 H77        -6.2990    0.8960    5.0000 h1        1 MOL      0.065501
    177 H78        -5.1190    2.1880    4.6720 h1        1 MOL      0.065501
    178 H79        -6.5870    2.0480    3.6740 h1        1 MOL      0.065501
    179 H80        -5.3020    0.8210    2.3320 hn        1 MOL      0.045709
    180 Ca1         2.5970   -0.0910    0.0420 Ca        1 MOL      1.681854
    181 O27         2.6310    0.4390    2.6880 oh        1 MOL     -0.877791
    182 H81         1.8050    0.1890    3.0820 ho        1 MOL      0.422423
    183 H82         3.2220    0.5540    3.4390 ho        1 MOL      0.422423
    184 O28         1.4050    0.5170   -2.2510 oh        1 MOL     -0.877791
    185 H83         1.9980    1.1650   -2.6300 ho        1 MOL      0.422423
    186 H84         1.5630   -0.2820   -2.7530 ho        1 MOL      0.422423
    187 O29         5.0420    0.6760    1.4560 oh        1 MOL     -0.877791
    188 H85         5.7690    0.1620    1.8170 ho        1 MOL      0.422423
    189 H86         4.6870    1.1410    2.2070 ho        1 MOL      0.422423
@<TRIPOS>BOND
     1    1    2 1   
     2    1    4 1   
     3    1    5 1   
     4    1    6 1   
     5    2    3 2   
     6    2    7 1   
     7    7    8 1   
     8    7   15 1   
     9    8    9 1   
    10    8   11 1   
    11    8   16 1   
    12    9   10 2   
    13    9   19 1   
    14   11   12 1   
    15   11   17 1   
    16   11   18 1   
    17   12   13 1   
    18   12   14 1   
    19   19   20 1   
    20   19   27 1   
    21   20   21 1   
    22   20   23 1   
    23   20   28 1   
    24   21   22 2   
    25   21   38 1   
    26   23   24 1   
    27   23   25 1   
    28   23   29 1   
    29   24   26 1   
    30   24   30 1   
    31   24   31 1   
    32   25   32 1   
    33   25   33 1   
    34   25   34 1   
    35   26   35 1   
    36   26   36 1   
    37   26   37 1   
    38   38   39 1   
    39   38   46 1   
    40   39   40 1   
    41   39   42 1   
    42   39   47 1   
    43   40   41 2   
    44   40   50 1   
    45   42   43 1   
    46   42   48 1   
    47   42   49 1   
    48   43   44 1   
    49   43   45 1   
    50   50   51 1   
    51   50   54 1   
    52   51   52 1   
    53   51   55 1   
    54   51   56 1   
    55   52   53 2   
    56   52   57 1   
    57   57   58 1   
    58   57   65 1   
    59   58   59 1   
    60   58   61 1   
    61   58   66 1   
    62   59   60 2   
    63   59   69 1   
    64   61   62 1   
    65   61   67 1   
    66   61   68 1   
    67   62   63 1   
    68   62   64 1   
    69   69   70 1   
    70   69   73 1   
    71   70   71 1   
    72   70   74 1   
    73   70   75 1   
    74   71   72 2   
    75   71   76 1   
    76   76   77 1   
    77   76   85 1   
    78   77   78 1   
    79   77   80 1   
    80   77   86 1   
    81   78   79 2   
    82   78   93 1   
    83   80   81 1   
    84   80   87 1   
    85   80   88 1   
    86   81   82 1   
    87   81   89 1   
    88   81   90 1   
    89   82   83 1   
    90   82   84 2   
    91   83   91 1   
    92   83   92 1   
    93   93   94 1   
    94   93  100 1   
    95   94   95 1   
    96   94   97 1   
    97   94  101 1   
    98   95   96 2   
    99   95  109 1   
   100   97   98 1   
   101   97   99 1   
   102   97  102 1   
   103   98  103 1   
   104   98  104 1   
   105   98  105 1   
   106   99  106 1   
   107   99  107 1   
   108   99  108 1   
   109  109  110 1   
   110  109  117 1   
   111  110  111 1   
   112  110  113 1   
   113  110  118 1   
   114  111  112 2   
   115  111  123 1   
   116  113  114 1   
   117  113  119 1   
   118  113  120 1   
   119  114  115 1   
   120  114  116 2   
   121  115  121 1   
   122  115  122 1   
   123  123  124 1   
   124  123  135 1   
   125  124  125 1   
   126  124  127 1   
   127  124  136 1   
   128  125  126 2   
   129  125  144 1   
   130  127  128 1   
   131  127  137 1   
   132  127  138 1   
   133  128  129 ar  
   134  128  130 ar  
   135  129  131 ar  
   136  129  139 1   
   137  130  132 ar  
   138  130  140 1   
   139  131  133 ar  
   140  131  141 1   
   141  132  133 ar  
   142  132  142 1   
   143  133  134 1   
   144  134  143 1   
   145  144  145 1   
   146  144  153 1   
   147  145  146 1   
   148  145  148 1   
   149  145  154 1   
   150  146  147 2   
   151  146  159 1   
   152  148  149 1   
   153  148  155 1   
   154  148  156 1   
   155  149  150 1   
   156  149  157 1   
   157  149  158 1   
   158  150  151 1   
   159  150  152 1   
   160  159  160 1   
   161  159  168 1   
   162  160  161 1   
   163  160  163 1   
   164  160  169 1   
   165  161  162 2   
   166  161  174 1   
   167  163  164 1   
   168  163  170 1   
   169  163  171 1   
   170  164  165 1   
   171  164  172 1   
   172  164  173 1   
   173  165  166 1   
   174  165  167 1   
   175  174  175 1   
   176  174  179 1   
   177  175  176 1   
   178  175  177 1   
   179  175  178 1   
   180  181  182 1   
   181  181  183 1   
   182  184  185 1   
   183  184  186 1   
   184  187  188 1   
   185  187  189 1   
@<TRIPOS>SUBSTRUCTURE
     1 MOL         1 TEMP              0 ****  ****    0 ROOT
