@<TRIPOS>MOLECULE
MOL
  175   173     1     0     0
SMALL
resp


@<TRIPOS>ATOM
      1 C1         -1.1650    3.1890    5.9620 c3        1 MOL     -0.363770
      2 C2         -1.2140    2.9140    4.4300 c         1 MOL      0.814126
      3 O1         -0.1700    3.0940    3.8050 o         1 MOL     -0.602912
      4 H1         -1.7600    2.4400    6.4850 hc        1 MOL      0.075869
      5 H2         -0.1320    3.1390    6.3090 hc        1 MOL      0.075869
      6 H3         -1.5690    4.1810    6.1670 hc        1 MOL      0.075869
      7 N1         -2.3470    2.4520    3.9440 n         1 MOL     -0.650066
      8 C3         -2.5930    2.2190    2.4970 c3        1 MOL      0.108089
      9 C4         -2.8600    3.5930    1.8100 c         1 MOL      0.610862
     10 O2         -3.6210    4.3790    2.3110 o         1 MOL     -0.595407
     11 C5         -3.7490    1.2380    2.5380 c3        1 MOL      0.032806
     12 C6         -4.0710    0.7520    1.2010 c         1 MOL      0.714297
     13 O3         -4.8960   -0.1810    1.0950 o         1 MOL     -0.660695
     14 O4         -3.6790    1.3450    0.1570 o         1 MOL     -0.660695
     15 H4         -3.0930    2.1990    4.5750 hn        1 MOL      0.328001
     16 H5         -1.7310    1.7580    2.0200 h1        1 MOL     -0.079725
     17 H6         -4.5780    1.5320    3.1810 hc        1 MOL     -0.005413
     18 H7         -3.3910    0.3570    3.0780 hc        1 MOL     -0.005413
     19 N2         -2.0680    3.8710    0.7690 n         1 MOL     -0.459590
     20 C7         -2.1680    5.1500    0.0450 c3        1 MOL      0.259181
     21 C8         -3.3300    5.0670   -0.9920 c         1 MOL      0.238401
     22 O5         -3.5510    6.0830   -1.7370 o         1 MOL     -0.551374
     23 C9         -0.8030    5.4110   -0.6080 c3        1 MOL     -0.163969
     24 H8         -1.4510    3.1250    0.4750 hn        1 MOL      0.306502
     25 H9         -2.3110    5.9710    0.7460 h1        1 MOL      0.047448
     26 H10        -0.0200    5.4220    0.1510 hc        1 MOL      0.049662
     27 H11        -0.4750    4.7020   -1.3630 hc        1 MOL      0.049662
     28 H12        -0.8770    6.4350   -0.9720 hc        1 MOL      0.049662
     29 N3         -3.9190    3.9410   -1.2910 n         1 MOL     -0.118729
     30 C10        -4.8970    3.7130   -2.3900 c3        1 MOL      0.096693
     31 C11        -6.1230    3.0170   -1.9170 c         1 MOL      0.480590
     32 O6         -7.0970    3.1100   -2.6130 o         1 MOL     -0.533434
     33 C12        -4.1960    3.0530   -3.5580 c3        1 MOL     -0.192931
     34 C13        -3.3630    1.8730   -3.1450 c         1 MOL      0.830111
     35 O7         -3.8440    0.7090   -3.1790 o         1 MOL     -0.731446
     36 O8         -2.1960    2.0800   -2.8350 o         1 MOL     -0.731446
     37 H13        -3.5570    3.1240   -0.8150 hn        1 MOL      0.065878
     38 H14        -5.1650    4.7250   -2.6760 h1        1 MOL      0.085005
     39 H15        -3.5540    3.7610   -4.0850 hc        1 MOL      0.032566
     40 H16        -4.9480    2.7500   -4.2790 hc        1 MOL      0.032566
     41 N4         -6.2520    2.6600   -0.6330 n         1 MOL     -0.360643
     42 C14        -7.4690    2.2020    0.0450 c3        1 MOL     -0.097176
     43 C15        -7.9890    0.7930   -0.3420 c         1 MOL      0.363893
     44 O9         -9.1770    0.3680   -0.1380 o         1 MOL     -0.546826
     45 H17        -5.3570    2.5910   -0.1560 hn        1 MOL      0.207089
     46 H18        -8.3460    2.8450   -0.0990 h1        1 MOL      0.110337
     47 H19        -7.3060    2.2620    1.1180 h1        1 MOL      0.110337
     48 N5         -7.1070   -0.0370   -0.9310 n         1 MOL     -0.037065
     49 C16        -7.4810   -1.3840   -1.3250 c3        1 MOL     -0.024142
     50 C17        -7.5010   -2.3700   -0.1770 c         1 MOL      0.423451
     51 O10        -8.3430   -3.3120   -0.1030 o         1 MOL     -0.578615
     52 C18        -6.5090   -1.8720   -2.4220 c3        1 MOL     -0.152779
     53 C19        -5.1880   -2.4610   -1.8660 c         1 MOL      0.676891
     54 N6         -5.1750   -3.7210   -1.4420 n         1 MOL     -0.784533
     55 O11        -4.1330   -1.8390   -1.8890 o         1 MOL     -0.609922
     56 H20        -6.1550    0.2630   -1.0700 hn        1 MOL      0.082617
     57 H21        -8.4940   -1.3800   -1.7190 h1        1 MOL      0.110418
     58 H22        -6.3470   -1.1640   -3.2270 hc        1 MOL      0.053074
     59 H23        -7.0330   -2.7310   -2.8530 hc        1 MOL      0.053074
     60 H24        -5.8520   -4.4400   -1.6530 hn        1 MOL      0.356862
     61 H25        -4.2310   -4.0060   -1.2010 hn        1 MOL      0.356862
     62 N7         -6.6740   -2.1900    0.8670 n         1 MOL     -0.117226
     63 C20        -6.5650   -3.0990    2.0650 c3        1 MOL     -0.068345
     64 C21        -5.2120   -3.8610    2.2170 c         1 MOL      0.401787
     65 O12        -5.2060   -4.8160    3.0120 o         1 MOL     -0.535940
     66 H26        -6.0230   -1.4320    0.7870 hn        1 MOL      0.082729
     67 H27        -7.2860   -3.9140    2.0540 h1        1 MOL      0.088375
     68 H28        -6.8290   -2.5250    2.9480 h1        1 MOL      0.088375
     69 N8         -4.1950   -3.5260    1.3670 n         1 MOL     -0.060951
     70 C22        -2.8520   -4.1010    1.4990 c3        1 MOL     -0.044277
     71 C23        -1.8190   -3.0560    1.2090 c         1 MOL      0.550346
     72 O13        -2.2140   -2.0230    0.7180 o         1 MOL     -0.538692
     73 C24        -2.5690   -5.2590    0.5220 c3        1 MOL      0.265903
     74 C25        -3.4240   -6.5630    0.7220 c3        1 MOL     -0.335924
     75 O14        -2.6730   -4.9390   -0.8220 oh        1 MOL     -0.639833
     76 H29        -4.2530   -2.7260    0.7520 hn        1 MOL      0.080634
     77 H30        -2.6690   -4.4020    2.5310 h1        1 MOL      0.094655
     78 H31        -1.5480   -5.6340    0.5780 h1        1 MOL      0.034831
     79 H32        -2.3600   -5.6470   -1.3860 ho        1 MOL      0.432410
     80 H33        -4.4410   -6.3660    0.4000 hc        1 MOL      0.092107
     81 H34        -3.0560   -7.3650    0.0810 hc        1 MOL      0.092107
     82 H35        -3.3270   -6.7880    1.7860 hc        1 MOL      0.092107
     83 N9         -0.5140   -3.2890    1.4930 n         1 MOL     -0.493052
     84 C26         0.6090   -2.3760    1.2050 c3        1 MOL     -0.095015
     85 C27         1.8480   -2.9220    0.4730 c         1 MOL      0.619880
     86 O15         2.2900   -4.0630    0.6730 o         1 MOL     -0.569609
     87 C28         1.0510   -1.7320    2.5260 c3        1 MOL      0.265099
     88 C29         1.4390   -2.7230    3.5840 c3        1 MOL     -0.077113
     89 C30        -0.0920   -0.7240    3.0210 c3        1 MOL     -0.333811
     90 C31         2.1700   -2.0360    4.6800 c3        1 MOL     -0.081300
     91 H36        -0.3230   -4.1170    2.0410 hn        1 MOL      0.252632
     92 H37         0.2450   -1.5440    0.5950 h1        1 MOL      0.027249
     93 H38         1.9030   -1.1310    2.2140 hc        1 MOL     -0.056750
     94 H39         2.1330   -3.3640    3.0440 hc        1 MOL      0.029194
     95 H40         0.5860   -3.3030    3.9360 hc        1 MOL      0.029194
     96 H41        -0.6480   -0.3370    2.1730 hc        1 MOL      0.095338
     97 H42        -0.8400   -1.2110    3.6410 hc        1 MOL      0.095338
     98 H43         0.3760    0.0560    3.6390 hc        1 MOL      0.095338
     99 H44         2.6270   -2.7750    5.3330 hc        1 MOL      0.010624
    100 H45         2.8390   -1.2760    4.2880 hc        1 MOL      0.010624
    101 H46         1.4140   -1.5010    5.2650 hc        1 MOL      0.010624
    102 N10         2.3080   -2.0790   -0.4780 n         1 MOL     -0.526544
    103 C32         3.5450   -2.2470   -1.2780 c3        1 MOL      0.369749
    104 C33         4.6870   -1.4030   -0.7960 c         1 MOL      0.335133
    105 O16         4.5030   -0.5380    0.0380 o         1 MOL     -0.310421
    106 C34         3.0680   -2.0480   -2.7440 c3        1 MOL     -0.210894
    107 C35         4.0990   -2.3460   -3.7570 c         1 MOL      0.713469
    108 O17         5.0030   -3.2370   -3.5770 o         1 MOL     -0.713921
    109 O18         4.0030   -1.8520   -4.9040 o         1 MOL     -0.713921
    110 H47         1.8480   -1.1990   -0.6600 hn        1 MOL      0.243964
    111 H48         3.8060   -3.3050   -1.2150 h1        1 MOL     -0.009578
    112 H49         2.7380   -1.0260   -2.9180 hc        1 MOL      0.046805
    113 H50         2.2670   -2.7620   -2.9770 hc        1 MOL      0.046805
    114 N11         5.9280   -1.6660   -1.3060 n         1 MOL     -0.644640
    115 C36         7.2000   -1.1520   -0.8080 c3        1 MOL      0.608116
    116 C37         7.1950    0.4400   -0.5020 c         1 MOL      0.234358
    117 O19         7.6350    0.7370    0.5800 o         1 MOL     -0.510253
    118 C38         8.4330   -1.6650   -1.5010 c3        1 MOL     -0.294665
    119 C39         9.7260   -1.5960   -0.6640 ca        1 MOL      0.287546
    120 C40         9.7850   -2.1860    0.5920 ca        1 MOL     -0.306599
    121 C41        10.8430   -0.9720   -1.2760 ca        1 MOL     -0.306599
    122 C42        10.9990   -2.0930    1.2720 ca        1 MOL      0.014779
    123 C43        12.0320   -0.7520   -0.5550 ca        1 MOL      0.014779
    124 C44        12.1320   -1.3490    0.7600 ca        1 MOL     -0.290344
    125 H51         5.9920   -2.4590   -1.9410 hn        1 MOL      0.254349
    126 H52         7.3460   -1.4910    0.2200 h1        1 MOL     -0.033168
    127 H53         8.5850   -1.0050   -2.3570 hc        1 MOL      0.073191
    128 H54         8.2200   -2.6560   -1.8920 hc        1 MOL      0.073191
    129 H55         8.9500   -2.5950    1.1430 ha        1 MOL      0.153694
    130 H56        10.7830   -0.4530   -2.2240 ha        1 MOL      0.153694
    131 H57        11.0710   -2.4990    2.2680 ha        1 MOL      0.083778
    132 H58        12.8770   -0.2010   -0.9270 ha        1 MOL      0.083778
    133 H59        12.9280   -1.0950    1.4390 ha        1 MOL      0.142053
    134 N12         6.6670    1.3720   -1.2980 n         1 MOL     -0.106816
    135 C45         6.7680    2.8040   -0.9560 c3        1 MOL      0.144715
    136 C46         5.7680    3.1620    0.1920 c         1 MOL      0.276013
    137 O20         5.9360    4.0630    1.0260 o         1 MOL     -0.488332
    138 C47         6.4060    3.4900   -2.2000 c3        1 MOL     -0.158753
    139 C48         5.6260    2.5400   -3.1810 c3        1 MOL      0.170600
    140 C49         6.2040    1.2220   -2.7460 c3        1 MOL     -0.250178
    141 H60         7.7400    3.2040   -0.6590 h1        1 MOL      0.055715
    142 H61         5.7590    4.3470   -2.0270 hc        1 MOL      0.036285
    143 H62         7.3210    3.8340   -2.6720 hc        1 MOL      0.036285
    144 H63         4.5700    2.6200   -2.9250 hc        1 MOL     -0.005782
    145 H64         5.7450    2.8300   -4.2200 hc        1 MOL     -0.005782
    146 H65         5.4260    0.4730   -2.7810 h1        1 MOL      0.094831
    147 H66         6.9780    1.0700   -3.4960 h1        1 MOL      0.094831
    148 N13         4.6830    2.3770    0.3180 n         1 MOL     -0.112748
    149 C50         3.6990    2.5380    1.3760 c3        1 MOL     -0.209099
    150 C51         4.2740    2.0490    2.6490 c         1 MOL      0.430409
    151 O21         4.3030    2.7200    3.6820 o         1 MOL     -0.541024
    152 C52         2.3880    1.8100    1.0430 c3        1 MOL     -0.073782
    153 C53         1.6750    2.3420   -0.2260 c3        1 MOL     -0.192669
    154 C54         0.5670    1.2770   -0.5390 c         1 MOL      0.757520
    155 O22        -0.5190    1.3600    0.0470 o         1 MOL     -0.739781
    156 O23         0.6590    0.3510   -1.4170 o         1 MOL     -0.739781
    157 H67         4.4250    1.5790   -0.2420 hn        1 MOL      0.246065
    158 H68         3.4020    3.5850    1.4200 h1        1 MOL      0.140492
    159 H69         1.6980    1.9910    1.8680 hc        1 MOL      0.111651
    160 H70         2.5290    0.7280    0.9430 hc        1 MOL      0.111651
    161 H71         2.2730    2.5300   -1.1240 hc        1 MOL      0.052707
    162 H72         1.0900    3.2270    0.0180 hc        1 MOL      0.052707
    163 N14         4.9580    0.8840    2.6280 n         1 MOL      0.037507
    164 C55         5.6890    0.2410    3.7420 c3        1 MOL     -0.308749
    165 H73         4.9940    0.0170    4.5520 h1        1 MOL      0.105511
    166 H74         6.1480   -0.6830    3.3910 h1        1 MOL      0.105511
    167 H75         6.4640    0.9160    4.1070 h1        1 MOL      0.105511
    168 H76         4.7840    0.3500    1.7770 hn        1 MOL      0.036027
    169 Ca1        -2.0750   -0.1460   -1.4440 Ca        1 MOL      1.766552
    170 O24        -1.3310   -2.7170   -1.9110 oh        1 MOL     -0.841554
    171 H77        -0.8890   -3.1920   -2.6140 ho        1 MOL      0.407510
    172 H78        -1.6610   -3.4090   -1.3290 ho        1 MOL      0.407510
    173 O25        -1.1970   -0.7230   -3.9670 oh        1 MOL     -0.841554
    174 H79        -0.9830   -1.6620   -4.0400 ho        1 MOL      0.407510
    175 H80        -0.7640   -0.3250   -4.7210 ho        1 MOL      0.407510
@<TRIPOS>BOND
     1    1    2 1   
     2    1    4 1   
     3    1    5 1   
     4    1    6 1   
     5    2    3 2   
     6    2    7 1   
     7    7    8 1   
     8    7   15 1   
     9    8    9 1   
    10    8   11 1   
    11    8   16 1   
    12    9   10 2   
    13    9   19 1   
    14   11   12 1   
    15   11   17 1   
    16   11   18 1   
    17   12   13 1   
    18   12   14 1   
    19   19   20 1   
    20   19   24 1   
    21   20   21 1   
    22   20   23 1   
    23   20   25 1   
    24   21   22 2   
    25   21   29 1   
    26   23   26 1   
    27   23   27 1   
    28   23   28 1   
    29   29   30 1   
    30   29   37 1   
    31   30   31 1   
    32   30   33 1   
    33   30   38 1   
    34   31   32 2   
    35   31   41 1   
    36   33   34 1   
    37   33   39 1   
    38   33   40 1   
    39   34   35 1   
    40   34   36 1   
    41   41   42 1   
    42   41   45 1   
    43   42   43 1   
    44   42   46 1   
    45   42   47 1   
    46   43   44 2   
    47   43   48 1   
    48   48   49 1   
    49   48   56 1   
    50   49   50 1   
    51   49   52 1   
    52   49   57 1   
    53   50   51 2   
    54   50   62 1   
    55   52   53 1   
    56   52   58 1   
    57   52   59 1   
    58   53   54 1   
    59   53   55 2   
    60   54   60 1   
    61   54   61 1   
    62   62   63 1   
    63   62   66 1   
    64   63   64 1   
    65   63   67 1   
    66   63   68 1   
    67   64   65 2   
    68   64   69 1   
    69   69   70 1   
    70   69   76 1   
    71   70   71 1   
    72   70   73 1   
    73   70   77 1   
    74   71   72 2   
    75   71   83 1   
    76   73   74 1   
    77   73   75 1   
    78   73   78 1   
    79   74   80 1   
    80   74   81 1   
    81   74   82 1   
    82   75   79 1   
    83   83   84 1   
    84   83   91 1   
    85   84   85 1   
    86   84   87 1   
    87   84   92 1   
    88   85   86 2   
    89   85  102 1   
    90   87   88 1   
    91   87   89 1   
    92   87   93 1   
    93   88   90 1   
    94   88   94 1   
    95   88   95 1   
    96   89   96 1   
    97   89   97 1   
    98   89   98 1   
    99   90   99 1   
   100   90  100 1   
   101   90  101 1   
   102  102  103 1   
   103  102  110 1   
   104  103  104 1   
   105  103  106 1   
   106  103  111 1   
   107  104  105 2   
   108  104  114 1   
   109  106  107 1   
   110  106  112 1   
   111  106  113 1   
   112  107  108 1   
   113  107  109 1   
   114  114  115 1   
   115  114  125 1   
   116  115  116 1   
   117  115  118 1   
   118  115  126 1   
   119  116  117 2   
   120  116  134 1   
   121  118  119 1   
   122  118  127 1   
   123  118  128 1   
   124  119  120 ar  
   125  119  121 ar  
   126  120  122 ar  
   127  120  129 1   
   128  121  123 ar  
   129  121  130 1   
   130  122  124 ar  
   131  122  131 1   
   132  123  124 ar  
   133  123  132 1   
   134  124  133 1   
   135  134  135 1   
   136  134  140 1   
   137  135  136 1   
   138  135  138 1   
   139  135  141 1   
   140  136  137 2   
   141  136  148 1   
   142  138  139 1   
   143  138  142 1   
   144  138  143 1   
   145  139  140 1   
   146  139  144 1   
   147  139  145 1   
   148  140  146 1   
   149  140  147 1   
   150  148  149 1   
   151  148  157 1   
   152  149  150 1   
   153  149  152 1   
   154  149  158 1   
   155  150  151 2   
   156  150  163 1   
   157  152  153 1   
   158  152  159 1   
   159  152  160 1   
   160  153  154 1   
   161  153  161 1   
   162  153  162 1   
   163  154  155 1   
   164  154  156 1   
   165  163  164 1   
   166  163  168 1   
   167  164  165 1   
   168  164  166 1   
   169  164  167 1   
   170  170  171 1   
   171  170  172 1   
   172  173  174 1   
   173  173  175 1   
@<TRIPOS>SUBSTRUCTURE
     1 MOL         1 TEMP              0 ****  ****    0 ROOT
