@<TRIPOS>MOLECULE
MOL
  189   185     1     0     0
SMALL
resp


@<TRIPOS>ATOM
      1 C1         -0.2290    1.6330    6.3740 c3        1 MOL     -0.369913
      2 C2         -0.3970    1.5050    4.8600 c         1 MOL      0.798824
      3 O1          0.4580    1.9070    4.1510 o         1 MOL     -0.640956
      4 H1         -1.0480    2.2260    6.7820 hc        1 MOL      0.087541
      5 H2         -0.2390    0.6410    6.8260 hc        1 MOL      0.087541
      6 H3          0.7200    2.1230    6.5950 hc        1 MOL      0.087541
      7 N1         -1.5570    1.0190    4.4490 n         1 MOL     -0.580531
      8 C3         -1.9470    1.2070    3.0440 c3        1 MOL      0.234617
      9 C4         -2.4490    2.6140    2.7940 c         1 MOL      0.395626
     10 O2         -3.4900    3.0020    3.3780 o         1 MOL     -0.532414
     11 C5         -3.0620    0.1670    2.7760 c3        1 MOL     -0.443461
     12 C6         -3.8370    0.1690    1.4210 c         1 MOL      0.865092
     13 O3         -4.7550   -0.6760    1.3630 o         1 MOL     -0.702512
     14 O4         -3.4680    0.9110    0.4890 o         1 MOL     -0.702512
     15 H4         -2.2580    0.7770    5.1420 hn        1 MOL      0.312735
     16 H5         -1.0620    0.9750    2.4540 h1        1 MOL     -0.048507
     17 H6         -3.8470    0.2710    3.5190 hc        1 MOL      0.107951
     18 H7         -2.6490   -0.8460    2.8380 hc        1 MOL      0.107951
     19 N2         -1.6860    3.3680    1.9720 n         1 MOL     -0.265881
     20 C7         -1.9990    4.8230    1.7300 c3        1 MOL      0.007529
     21 C8         -3.0480    5.1340    0.7000 c         1 MOL      0.385040
     22 O5         -3.3230    6.3250    0.5230 o         1 MOL     -0.524114
     23 C9         -0.7290    5.6340    1.3480 c3        1 MOL     -0.313695
     24 C10         0.3290    5.0120    0.4470 c3        1 MOL      0.216585
     25 C11        -0.1170    5.0400   -1.0310 c3        1 MOL      0.060356
     26 C12         0.6770    3.9930   -1.7430 c3        1 MOL      0.111910
     27 N3          0.3540    3.9730   -3.1890 n4        1 MOL     -0.385731
     28 H8         -0.9450    2.9140    1.4570 hn        1 MOL      0.321634
     29 H9         -2.2880    5.1910    2.7180 h1        1 MOL      0.134816
     30 H10        -0.2390    5.5980    2.3110 hc        1 MOL      0.086964
     31 H11        -1.1130    6.5810    0.9580 hc        1 MOL      0.086964
     32 H12         0.6180    3.9890    0.6940 hc        1 MOL     -0.053981
     33 H13         1.2630    5.5870    0.5010 hc        1 MOL     -0.053981
     34 H14         0.1870    6.0190   -1.4100 hc        1 MOL      0.009545
     35 H15        -1.1420    4.7320   -1.2040 hc        1 MOL      0.009545
     36 H16         0.5780    3.0270   -1.2520 hx        1 MOL     -0.005771
     37 H17         1.7450    4.2070   -1.6570 hx        1 MOL     -0.005771
     38 H18        -0.5430    3.5620   -3.3830 hn        1 MOL      0.293266
     39 H19         0.2950    4.9400   -3.4870 hn        1 MOL      0.293266
     40 H20         1.0920    3.5390   -3.7310 hn        1 MOL      0.293266
     41 N4         -3.5490    4.1290    0.0230 n         1 MOL     -0.158465
     42 C13        -4.6280    4.1620   -1.0560 c3        1 MOL     -0.032542
     43 C14        -6.0010    3.6740   -0.5950 c         1 MOL      0.588408
     44 O6         -6.9550    4.1730   -1.1500 o         1 MOL     -0.569357
     45 C15        -4.2740    3.2510   -2.2860 c3        1 MOL     -0.075168
     46 C16        -2.7920    3.2850   -2.5650 c         1 MOL      0.747271
     47 O7         -2.3490    4.2000   -3.3410 o         1 MOL     -0.712614
     48 O8         -2.0320    2.3720   -2.1700 o         1 MOL     -0.712614
     49 H21        -3.0510    3.2750    0.2260 hn        1 MOL      0.056842
     50 H22        -4.7310    5.2220   -1.3080 h1        1 MOL      0.089085
     51 H23        -4.7370    3.5670   -3.2190 hc        1 MOL      0.031337
     52 H24        -4.6180    2.2140   -2.1800 hc        1 MOL      0.031337
     53 N5         -6.1250    2.6860    0.2270 n         1 MOL     -0.408778
     54 C17        -7.3940    2.0050    0.5710 c3        1 MOL     -0.071510
     55 C18        -7.8140    0.7710   -0.2880 c         1 MOL      0.428865
     56 O9         -8.9710    0.5110   -0.3160 o         1 MOL     -0.522624
     57 H25        -5.2870    2.1620    0.4350 hn        1 MOL      0.239240
     58 H26        -8.2180    2.7060    0.7250 h1        1 MOL      0.104857
     59 H27        -7.2210    1.5940    1.5670 h1        1 MOL      0.104857
     60 N6         -6.8470    0.0940   -0.9890 n         1 MOL     -0.045684
     61 C19        -7.1140   -1.0140   -1.9230 c3        1 MOL     -0.233596
     62 C20        -7.1530   -2.3830   -1.1590 c         1 MOL      0.448035
     63 O10        -7.5990   -3.3720   -1.6770 o         1 MOL     -0.537798
     64 C21        -6.0580   -1.0740   -3.0140 c3        1 MOL     -0.004951
     65 C22        -4.6160   -0.9280   -2.5730 c         1 MOL      0.603393
     66 O11        -4.2450   -1.7260   -1.7170 o         1 MOL     -0.711281
     67 O12        -3.8960   -0.0540   -3.0230 o         1 MOL     -0.711281
     68 H28        -5.9040    0.4350   -1.0640 hn        1 MOL      0.112565
     69 H29        -8.0600   -0.8220   -2.4250 h1        1 MOL      0.147677
     70 H30        -6.2590   -0.2650   -3.7110 hc        1 MOL      0.033556
     71 H31        -6.1700   -1.9780   -3.6250 hc        1 MOL      0.033556
     72 N7         -6.8470   -2.3810    0.1010 n         1 MOL     -0.186195
     73 C23        -6.7100   -3.5130    1.0150 c3        1 MOL     -0.121429
     74 C24        -5.3110   -4.2290    0.8730 c         1 MOL      0.508689
     75 O13        -5.2210   -5.3970    1.3130 o         1 MOL     -0.588544
     76 H32        -6.6910   -1.4290    0.4240 hn        1 MOL      0.203988
     77 H33        -7.4450   -4.2450    0.6690 h1        1 MOL      0.092278
     78 H34        -6.9320   -3.2650    2.0510 h1        1 MOL      0.092278
     79 N8         -4.2720   -3.5790    0.4180 n         1 MOL     -0.178493
     80 C25        -2.9850   -4.2830    0.1420 c3        1 MOL     -0.121479
     81 C26        -1.7950   -3.3780    0.3620 c         1 MOL      0.652716
     82 O14        -1.8610   -2.1510    0.1560 o         1 MOL     -0.689405
     83 C27        -2.9890   -4.9920   -1.2650 c3        1 MOL      0.402970
     84 C28        -3.5970   -6.4650   -1.3330 c3        1 MOL     -0.491934
     85 O15        -3.7760   -4.2630   -2.2690 oh        1 MOL     -0.652925
     86 H35        -4.3500   -2.5780    0.4080 hn        1 MOL      0.193858
     87 H36        -2.9090   -5.0230    0.9360 h1        1 MOL      0.086920
     88 H37        -1.9920   -4.9690   -1.7110 h1        1 MOL     -0.029203
     89 H38        -3.8980   -3.3590   -1.9590 ho        1 MOL      0.470516
     90 H39        -4.5460   -6.5170   -0.8080 hc        1 MOL      0.134622
     91 H40        -3.8490   -6.7640   -2.3490 hc        1 MOL      0.134622
     92 H41        -3.0410   -7.2360   -0.8130 hc        1 MOL      0.134622
     93 N9         -0.6220   -3.9280    0.6630 n         1 MOL     -0.641630
     94 C29         0.5810   -3.1900    0.9500 c3        1 MOL      0.273202
     95 C30         1.6940   -3.6360   -0.0090 c         1 MOL      0.373279
     96 O16         2.1530   -4.8120   -0.0170 o         1 MOL     -0.518572
     97 C31         0.9150   -3.4150    2.4610 c3        1 MOL     -0.036016
     98 C32        -0.0800   -2.4830    3.2260 c3        1 MOL      0.029912
     99 C33         2.3950   -3.1570    2.8040 c3        1 MOL     -0.165828
    100 C34         0.1470   -2.5490    4.7550 c3        1 MOL     -0.218749
    101 H42        -0.5090   -4.9290    0.5940 hn        1 MOL      0.312064
    102 H43         0.4760   -2.1050    0.8590 h1        1 MOL      0.070705
    103 H44         0.6940   -4.4600    2.6780 hc        1 MOL      0.047435
    104 H45        -1.0790   -2.8260    2.9800 hc        1 MOL      0.040770
    105 H46         0.0520   -1.4550    2.8970 hc        1 MOL      0.040770
    106 H47         2.9860   -3.8940    2.2600 hc        1 MOL      0.045043
    107 H48         2.5750   -2.1060    2.5950 hc        1 MOL      0.045043
    108 H49         2.7040   -3.2990    3.8390 hc        1 MOL      0.045043
    109 H50         1.1020   -2.0630    4.9740 hc        1 MOL      0.051911
    110 H51        -0.6430   -2.0770    5.3440 hc        1 MOL      0.051911
    111 H52         0.1200   -3.6010    5.0410 hc        1 MOL      0.051911
    112 N10         2.3130   -2.6180   -0.6620 n         1 MOL     -0.090599
    113 C35         3.4810   -2.7200   -1.5230 c3        1 MOL     -0.039899
    114 C36         4.7080   -2.8070   -0.6560 c         1 MOL      0.412748
    115 O17         4.8240   -2.4390    0.4700 o         1 MOL     -0.331532
    116 C37         3.6630   -1.5650   -2.5280 c3        1 MOL      0.269658
    117 C38         2.6200   -1.5830   -3.6850 c3        1 MOL     -0.211177
    118 O18         3.3160   -0.3710   -2.0000 oh        1 MOL     -0.586530
    119 H53         1.8390   -1.7340   -0.5430 hn        1 MOL     -0.084764
    120 H54         3.4600   -3.6740   -2.0450 h1        1 MOL      0.079970
    121 H55         4.6920   -1.5310   -2.8950 h1        1 MOL      0.063167
    122 H56         2.3870   -0.4080   -1.7540 ho        1 MOL      0.361786
    123 H57         1.5980   -1.4930   -3.3270 hc        1 MOL      0.043624
    124 H58         2.6320   -0.8280   -4.4810 hc        1 MOL      0.043624
    125 H59         2.7610   -2.5370   -4.1940 hc        1 MOL      0.043624
    126 N11         5.8670   -3.0550   -1.3260 n         1 MOL     -0.396708
    127 C39         7.2410   -2.7640   -0.7310 c3        1 MOL     -0.169421
    128 C40         7.5280   -1.3440   -0.0810 c         1 MOL      0.452067
    129 O19         8.2470   -1.2520    0.8970 o         1 MOL     -0.488678
    130 C41         8.2850   -3.0400   -1.7800 c3        1 MOL      0.396500
    131 C42         8.3730   -4.4380   -2.2730 c3        1 MOL     -0.424968
    132 O20         8.0050   -2.1740   -2.8760 oh        1 MOL     -0.630991
    133 H60         5.8240   -3.0980   -2.3300 hn        1 MOL      0.252480
    134 H61         7.4100   -3.4940    0.0480 h1        1 MOL      0.156934
    135 H62         9.2330   -2.8020   -1.2880 h1        1 MOL      0.013085
    136 H63         8.7890   -1.7300   -3.2040 ho        1 MOL      0.394313
    137 H64         9.1290   -4.4710   -3.0610 hc        1 MOL      0.121035
    138 H65         8.5530   -5.1150   -1.4340 hc        1 MOL      0.121035
    139 H66         7.4910   -4.8630   -2.7520 hc        1 MOL      0.121035
    140 N12         6.9820   -0.2710   -0.5960 n         1 MOL     -0.381126
    141 C43         7.0320    1.0270   -0.1150 c3        1 MOL     -0.009740
    142 C44         6.1150    1.2370    1.0340 c         1 MOL      0.387313
    143 O21         6.5820    1.8490    2.0540 o         1 MOL     -0.485958
    144 C45         6.6970    1.9290   -1.3700 c3        1 MOL      0.180815
    145 C46         7.3280    3.3840   -1.3920 c3        1 MOL     -0.137616
    146 C47         8.8660    3.3060   -1.3510 c3        1 MOL     -0.032849
    147 C48         9.3920    4.7360   -1.3400 c3        1 MOL     -0.056060
    148 N13         9.5380    5.3420   -2.7250 n4        1 MOL     -0.380181
    149 H67         6.3810   -0.4640   -1.3870 hn        1 MOL      0.247040
    150 H68         8.0330    1.2890    0.2290 h1        1 MOL      0.124394
    151 H69         5.6380    2.0970   -1.5790 hc        1 MOL     -0.031838
    152 H70         6.9870    1.3790   -2.2700 hc        1 MOL     -0.031838
    153 H71         6.9510    3.9150   -0.5120 hc        1 MOL      0.047709
    154 H72         7.0400    3.9020   -2.3060 hc        1 MOL      0.047709
    155 H73         9.1960    2.7370   -2.2210 hc        1 MOL      0.050290
    156 H74         9.2230    2.7950   -0.4580 hc        1 MOL      0.050290
    157 H75        10.4090    4.6270   -0.9680 hx        1 MOL      0.132578
    158 H76         8.8060    5.4340   -0.7420 hx        1 MOL      0.132578
    159 H77        10.0810    6.2000   -2.7340 hn        1 MOL      0.335800
    160 H78         9.9150    4.6370   -3.3400 hn        1 MOL      0.335800
    161 H79         8.5920    5.5410   -3.0090 hn        1 MOL      0.335800
    162 N14         4.8800    0.6610    0.8870 n         1 MOL     -0.203054
    163 C49         3.9210    0.7580    1.9690 c3        1 MOL     -0.274645
    164 C50         4.3030   -0.1590    3.1410 c         1 MOL      0.449437
    165 O22         3.8940    0.0590    4.3170 o         1 MOL     -0.536839
    166 C51         2.5170    0.2460    1.5120 c3        1 MOL      0.070195
    167 C52         1.9560    1.3420    0.5710 c3        1 MOL      0.285400
    168 C53         0.7060    0.8000   -0.1150 c         1 MOL      0.430338
    169 O23         0.7730   -0.0850   -1.0110 o         1 MOL     -0.602127
    170 O24        -0.4170    1.2540    0.1970 o         1 MOL     -0.602127
    171 H80         4.6160    0.2010    0.0270 hn        1 MOL      0.141041
    172 H81         3.8380    1.7790    2.3260 h1        1 MOL      0.160996
    173 H82         1.8850    0.0170    2.3610 hc        1 MOL      0.093114
    174 H83         2.7100   -0.6780    0.9890 hc        1 MOL      0.093114
    175 H84         2.6610    1.7100   -0.1820 hc        1 MOL     -0.068984
    176 H85         1.7110    2.2360    1.1480 hc        1 MOL     -0.068984
    177 N15         5.1560   -1.1970    2.9780 n         1 MOL     -0.055517
    178 C54         5.7740   -2.0840    4.0020 c3        1 MOL     -0.201195
    179 H86         6.7650   -2.3900    3.6660 h1        1 MOL      0.088014
    180 H87         5.8620   -1.5440    4.9450 h1        1 MOL      0.088014
    181 H88         5.1500   -2.9660    4.1440 h1        1 MOL      0.088014
    182 H89         5.2260   -1.5390    2.0430 hn        1 MOL      0.110717
    183 Ca1        -1.9450   -0.1440   -1.4330 Ca        1 MOL      1.770965
    184 O25        -1.1840   -2.0720   -2.9300 oh        1 MOL     -0.814770
    185 H90        -1.2750   -2.9600   -3.2620 ho        1 MOL      0.403914
    186 H91        -0.5740   -1.6560   -3.5330 ho        1 MOL      0.403914
    187 O26        -0.2530    0.4360   -3.8430 oh        1 MOL     -0.814770
    188 H92        -0.5550    0.9960   -4.5610 ho        1 MOL      0.403914
    189 H93         0.6950    0.5400   -3.8520 ho        1 MOL      0.403914
@<TRIPOS>BOND
     1    1    2 1   
     2    1    4 1   
     3    1    5 1   
     4    1    6 1   
     5    2    3 2   
     6    2    7 1   
     7    7    8 1   
     8    7   15 1   
     9    8    9 1   
    10    8   11 1   
    11    8   16 1   
    12    9   10 2   
    13    9   19 1   
    14   11   12 1   
    15   11   17 1   
    16   11   18 1   
    17   12   13 1   
    18   12   14 1   
    19   19   20 1   
    20   19   28 1   
    21   20   21 1   
    22   20   23 1   
    23   20   29 1   
    24   21   22 2   
    25   21   41 1   
    26   23   24 1   
    27   23   30 1   
    28   23   31 1   
    29   24   25 1   
    30   24   32 1   
    31   24   33 1   
    32   25   26 1   
    33   25   34 1   
    34   25   35 1   
    35   26   27 1   
    36   26   36 1   
    37   26   37 1   
    38   27   38 1   
    39   27   39 1   
    40   27   40 1   
    41   41   42 1   
    42   41   49 1   
    43   42   43 1   
    44   42   45 1   
    45   42   50 1   
    46   43   44 2   
    47   43   53 1   
    48   45   46 1   
    49   45   51 1   
    50   45   52 1   
    51   46   47 1   
    52   46   48 1   
    53   53   54 1   
    54   53   57 1   
    55   54   55 1   
    56   54   58 1   
    57   54   59 1   
    58   55   56 2   
    59   55   60 1   
    60   60   61 1   
    61   60   68 1   
    62   61   62 1   
    63   61   64 1   
    64   61   69 1   
    65   62   63 2   
    66   62   72 1   
    67   64   65 1   
    68   64   70 1   
    69   64   71 1   
    70   65   66 1   
    71   65   67 1   
    72   72   73 1   
    73   72   76 1   
    74   73   74 1   
    75   73   77 1   
    76   73   78 1   
    77   74   75 2   
    78   74   79 1   
    79   79   80 1   
    80   79   86 1   
    81   80   81 1   
    82   80   83 1   
    83   80   87 1   
    84   81   82 2   
    85   81   93 1   
    86   83   84 1   
    87   83   85 1   
    88   83   88 1   
    89   84   90 1   
    90   84   91 1   
    91   84   92 1   
    92   85   89 1   
    93   93   94 1   
    94   93  101 1   
    95   94   95 1   
    96   94   97 1   
    97   94  102 1   
    98   95   96 2   
    99   95  112 1   
   100   97   98 1   
   101   97   99 1   
   102   97  103 1   
   103   98  100 1   
   104   98  104 1   
   105   98  105 1   
   106   99  106 1   
   107   99  107 1   
   108   99  108 1   
   109  100  109 1   
   110  100  110 1   
   111  100  111 1   
   112  112  113 1   
   113  112  119 1   
   114  113  114 1   
   115  113  116 1   
   116  113  120 1   
   117  114  115 2   
   118  114  126 1   
   119  116  117 1   
   120  116  118 1   
   121  116  121 1   
   122  117  123 1   
   123  117  124 1   
   124  117  125 1   
   125  118  122 1   
   126  126  127 1   
   127  126  133 1   
   128  127  128 1   
   129  127  130 1   
   130  127  134 1   
   131  128  129 2   
   132  128  140 1   
   133  130  131 1   
   134  130  132 1   
   135  130  135 1   
   136  131  137 1   
   137  131  138 1   
   138  131  139 1   
   139  132  136 1   
   140  140  141 1   
   141  140  149 1   
   142  141  142 1   
   143  141  144 1   
   144  141  150 1   
   145  142  143 2   
   146  142  162 1   
   147  144  145 1   
   148  144  151 1   
   149  144  152 1   
   150  145  146 1   
   151  145  153 1   
   152  145  154 1   
   153  146  147 1   
   154  146  155 1   
   155  146  156 1   
   156  147  148 1   
   157  147  157 1   
   158  147  158 1   
   159  148  159 1   
   160  148  160 1   
   161  148  161 1   
   162  162  163 1   
   163  162  171 1   
   164  163  164 1   
   165  163  166 1   
   166  163  172 1   
   167  164  165 2   
   168  164  177 1   
   169  166  167 1   
   170  166  173 1   
   171  166  174 1   
   172  167  168 1   
   173  167  175 1   
   174  167  176 1   
   175  168  169 1   
   176  168  170 1   
   177  177  178 1   
   178  177  182 1   
   179  178  179 1   
   180  178  180 1   
   181  178  181 1   
   182  184  185 1   
   183  184  186 1   
   184  187  188 1   
   185  187  189 1   
@<TRIPOS>SUBSTRUCTURE
     1 MOL         1 TEMP              0 ****  ****    0 ROOT
