@<TRIPOS>MOLECULE
MOL
  175   173     1     0     0
SMALL
resp


@<TRIPOS>ATOM
      1 C1          0.3240    4.3590    5.0870 c3        1 MOL     -0.424413
      2 C2         -0.3370    4.3650    3.7000 c         1 MOL      0.726573
      3 O1          0.2800    4.5450    2.6280 o         1 MOL     -0.603893
      4 H1          1.1500    5.0710    5.1000 hc        1 MOL      0.099164
      5 H2         -0.4100    4.6420    5.8410 hc        1 MOL      0.099164
      6 H3          0.7030    3.3600    5.3050 hc        1 MOL      0.099164
      7 N1         -1.5500    3.9750    3.6970 n         1 MOL     -0.603278
      8 C3         -2.2440    3.6410    2.4340 c3        1 MOL      0.298282
      9 C4         -2.4860    4.8220    1.4500 c         1 MOL      0.395850
     10 O2         -2.6850    5.9880    1.8650 o         1 MOL     -0.583826
     11 C5         -3.5630    2.9230    2.8180 c3        1 MOL     -0.538838
     12 C6         -4.3190    2.0950    1.7590 c         1 MOL      0.837930
     13 O3         -3.7830    1.8480    0.6320 o         1 MOL     -0.691009
     14 O4         -5.5130    1.7800    2.0090 o         1 MOL     -0.691009
     15 H4         -1.9910    3.6500    4.5490 hn        1 MOL      0.313806
     16 H5         -1.6240    2.8850    1.9340 h1        1 MOL      0.088446
     17 H6         -4.2210    3.7360    3.1170 hc        1 MOL      0.104001
     18 H7         -3.3120    2.2320    3.6150 hc        1 MOL      0.104001
     19 N2         -2.4680    4.5140    0.1840 n         1 MOL     -0.093397
     20 C7         -2.7650    5.3620   -0.9090 c3        1 MOL      0.019811
     21 C8         -3.9000    4.8520   -1.8330 c         1 MOL      0.567339
     22 O5         -4.2060    5.4940   -2.8170 o         1 MOL     -0.569376
     23 C9         -1.3920    5.5740   -1.5640 c3        1 MOL     -0.156480
     24 H8         -2.0710    3.6330   -0.1310 hn        1 MOL      0.272506
     25 H9         -3.1850    6.2950   -0.5240 h1        1 MOL      0.047881
     26 H10        -1.2880    5.1140   -2.5340 hc        1 MOL      0.040733
     27 H11        -1.1590    6.6240   -1.7410 hc        1 MOL      0.040733
     28 H12        -0.6230    5.1650   -0.8950 hc        1 MOL      0.040733
     29 N3         -4.6260    3.7610   -1.5190 n         1 MOL     -0.472217
     30 C10        -5.3450    3.0680   -2.5870 c3        1 MOL      0.072807
     31 C11        -6.5420    2.2080   -2.1270 c         1 MOL      0.368992
     32 O6         -7.4630    1.8890   -2.9110 o         1 MOL     -0.551573
     33 C12        -4.4470    2.2090   -3.4360 c3        1 MOL     -0.175975
     34 C13        -3.5240    1.2970   -2.5710 c         1 MOL      0.677917
     35 O7         -2.2830    1.3810   -2.6400 o         1 MOL     -0.685040
     36 O8         -4.1400    0.4680   -1.8810 o         1 MOL     -0.685040
     37 H13        -4.4660    3.3640   -0.6010 hn        1 MOL      0.188147
     38 H14        -5.7220    3.8760   -3.2140 h1        1 MOL      0.089287
     39 H15        -3.7940    2.8900   -3.9800 hc        1 MOL      0.052503
     40 H16        -4.9850    1.6310   -4.1810 hc        1 MOL      0.052503
     41 N4         -6.5640    1.7720   -0.8750 n         1 MOL     -0.118842
     42 C14        -7.6110    0.8980   -0.2910 c3        1 MOL     -0.199748
     43 C15        -7.6410   -0.5220   -0.7740 c         1 MOL      0.565714
     44 O9         -8.7100   -1.1080   -0.7930 o         1 MOL     -0.596762
     45 H17        -5.7380    1.8780   -0.3110 hn        1 MOL      0.150877
     46 H18        -8.5930    1.3500   -0.4540 h1        1 MOL      0.091701
     47 H19        -7.3500    0.8620    0.7640 h1        1 MOL      0.091701
     48 N5         -6.4450   -1.0790   -1.0840 n         1 MOL     -0.205310
     49 C16        -6.2800   -2.4290   -1.6080 c3        1 MOL     -0.070288
     50 C17        -6.0010   -3.5010   -0.5750 c         1 MOL      0.426213
     51 O10        -5.7200   -4.6660   -1.0280 o         1 MOL     -0.517313
     52 C18        -5.2800   -2.3660   -2.7680 c3        1 MOL     -0.022599
     53 C19        -3.7790   -2.2220   -2.4580 c         1 MOL      0.503961
     54 N6         -2.8800   -2.3310   -3.4340 n         1 MOL     -0.552327
     55 O11        -3.3390   -2.1430   -1.3550 o         1 MOL     -0.547562
     56 H20        -5.5960   -0.5370   -1.1750 hn        1 MOL      0.185847
     57 H21        -7.1960   -2.7280   -2.1090 h1        1 MOL      0.098510
     58 H22        -5.5890   -1.5890   -3.4720 hc        1 MOL      0.034271
     59 H23        -5.3370   -3.2660   -3.3840 hc        1 MOL      0.034271
     60 H24        -3.1560   -2.3520   -4.4040 hn        1 MOL      0.292424
     61 H25        -1.9160   -2.2870   -3.1480 hn        1 MOL      0.292424
     62 N7         -6.0340   -3.1860    0.6870 n         1 MOL     -0.287012
     63 C20        -5.8490   -4.1810    1.7770 c3        1 MOL     -0.278860
     64 C21        -4.4410   -4.7660    1.9200 c         1 MOL      0.533058
     65 O12        -4.2820   -5.7590    2.6640 o         1 MOL     -0.588240
     66 H26        -6.0620   -2.2300    1.0170 hn        1 MOL      0.260005
     67 H27        -6.5640   -4.9460    1.4580 h1        1 MOL      0.139728
     68 H28        -6.1660   -3.7460    2.7300 h1        1 MOL      0.139728
     69 N8         -3.4770   -4.1880    1.2270 n         1 MOL     -0.131924
     70 C22        -2.0730   -4.5700    1.3090 c3        1 MOL     -0.233361
     71 C23        -1.1570   -3.4180    1.5640 c         1 MOL      0.595019
     72 O13        -1.4070   -2.3210    1.0960 o         1 MOL     -0.572184
     73 C24        -1.5480   -5.3330    0.0290 c3        1 MOL      0.586084
     74 C25        -1.6380   -6.8450    0.1870 c3        1 MOL     -0.308592
     75 O14        -2.1180   -4.9040   -1.1870 oh        1 MOL     -0.648750
     76 H29        -3.7140   -3.2900    0.8190 hn        1 MOL      0.182116
     77 H30        -1.8710   -5.3040    2.0850 h1        1 MOL      0.068930
     78 H31        -0.4820   -5.1080   -0.0330 h1        1 MOL     -0.047466
     79 H32        -2.4130   -3.9960   -1.1180 ho        1 MOL      0.368165
     80 H33        -1.2740   -7.4540   -0.6320 hc        1 MOL      0.066343
     81 H34        -0.9260   -7.0880    0.9770 hc        1 MOL      0.066343
     82 H35        -2.6600   -7.1490    0.4280 hc        1 MOL      0.066343
     83 N9          0.0130   -3.6140    2.1530 n         1 MOL     -0.555531
     84 C26         1.1340   -2.6090    2.1670 c3        1 MOL      0.008831
     85 C27         1.8890   -2.9880    0.8550 c         1 MOL      0.532214
     86 O15         2.4680   -4.0550    0.7820 o         1 MOL     -0.582751
     87 C28         2.0410   -2.6770    3.4630 c3        1 MOL     -0.022240
     88 C29         1.4240   -1.6850    4.5540 c3        1 MOL      0.240945
     89 C30         3.4320   -2.0150    3.2800 c3        1 MOL     -0.283230
     90 C31         2.1100   -1.7310    5.9200 c3        1 MOL     -0.221280
     91 H36         0.2200   -4.5260    2.5430 hn        1 MOL      0.318599
     92 H37         0.8370   -1.5570    2.1530 h1        1 MOL      0.089141
     93 H38         2.0750   -3.6790    3.9020 hc        1 MOL      0.041743
     94 H39         0.3970   -1.9990    4.7380 hc        1 MOL     -0.052201
     95 H40         1.3130   -0.6620    4.1810 hc        1 MOL     -0.052201
     96 H41         4.0780   -2.0030    4.1700 hc        1 MOL      0.070691
     97 H42         4.0170   -2.5280    2.5110 hc        1 MOL      0.070691
     98 H43         3.3940   -0.9560    3.0400 hc        1 MOL      0.070691
     99 H44         3.1000   -1.3060    5.8200 hc        1 MOL      0.041524
    100 H45         1.4610   -1.1820    6.6120 hc        1 MOL      0.041524
    101 H46         2.1950   -2.7800    6.2040 hc        1 MOL      0.041524
    102 N10         1.9590   -2.0490   -0.0610 n         1 MOL     -0.222521
    103 C32         2.7380   -2.0570   -1.2730 c3        1 MOL      0.012497
    104 C33         4.0340   -1.5010   -0.9850 c         1 MOL      0.458825
    105 O16         4.1810   -0.7590   -0.0100 o         1 MOL     -0.317568
    106 C34         2.0280   -1.2770   -2.4310 c3        1 MOL     -0.232223
    107 C35         0.5130   -1.5970   -2.5770 c         1 MOL      0.624789
    108 O17        -0.3100   -1.1100   -1.7710 o         1 MOL     -0.641668
    109 O18         0.0650   -2.1170   -3.6190 o         1 MOL     -0.641668
    110 H47         1.5030   -1.1620    0.1200 hn        1 MOL      0.189198
    111 H48         2.9390   -3.0890   -1.5760 h1        1 MOL      0.070942
    112 H49         2.5300   -1.5050   -3.3740 hc        1 MOL      0.080148
    113 H50         2.1870   -0.2040   -2.3210 hc        1 MOL      0.080148
    114 N11         5.1030   -1.8290   -1.6830 n         1 MOL     -0.607743
    115 C36         6.4780   -1.2810   -1.4130 c3        1 MOL      0.288434
    116 C37         6.5350    0.2980   -1.1930 c         1 MOL      0.347985
    117 O19         7.0530    0.7380   -0.2240 o         1 MOL     -0.487477
    118 C38         7.5070   -1.7780   -2.4780 c3        1 MOL     -0.330545
    119 C39         8.9410   -1.6900   -2.0540 ca        1 MOL      0.160500
    120 C40         9.4640   -2.6640   -1.1570 ca        1 MOL     -0.204545
    121 C41         9.7760   -0.6490   -2.5210 ca        1 MOL     -0.204545
    122 C42        10.7310   -2.4800   -0.6000 ca        1 MOL     -0.080569
    123 C43        11.1160   -0.5360   -2.1250 ca        1 MOL     -0.080569
    124 C44        11.6380   -1.4540   -1.0740 ca        1 MOL     -0.160238
    125 H51         4.9460   -2.4530   -2.4690 hn        1 MOL      0.314634
    126 H52         6.7450   -1.6690   -0.4270 h1        1 MOL      0.082373
    127 H53         7.3310   -1.3730   -3.4770 hc        1 MOL      0.098389
    128 H54         7.2750   -2.8410   -2.5940 hc        1 MOL      0.098389
    129 H55         8.7650   -3.4430   -0.8870 ha        1 MOL      0.130535
    130 H56         9.2970    0.0870   -3.1500 ha        1 MOL      0.130535
    131 H57        11.0470   -3.1760    0.1620 ha        1 MOL      0.109920
    132 H58        11.7240    0.2210   -2.5940 ha        1 MOL      0.109920
    133 H59        12.6690   -1.4710   -0.7540 ha        1 MOL      0.120982
    134 N12         5.8770    1.1080   -2.0260 n         1 MOL     -0.033268
    135 C45         5.9350    2.6320   -1.8140 c3        1 MOL     -0.051573
    136 C46         5.3610    3.0990   -0.4430 c         1 MOL      0.309631
    137 O20         5.6540    4.1960   -0.0030 o         1 MOL     -0.497322
    138 C47         5.2230    3.1880   -2.9940 c3        1 MOL      0.037706
    139 C48         5.3660    2.1630   -4.1510 c3        1 MOL     -0.067675
    140 C49         5.4180    0.7920   -3.3590 c3        1 MOL      0.000440
    141 H60         6.9910    2.9120   -1.8530 h1        1 MOL      0.079972
    142 H61         4.1670    3.3230   -2.7440 hc        1 MOL      0.025977
    143 H62         5.5660    4.1530   -3.3480 hc        1 MOL      0.025977
    144 H63         4.5300    2.1750   -4.8480 hc        1 MOL      0.028961
    145 H64         6.3460    2.2850   -4.6090 hc        1 MOL      0.028961
    146 H65         4.4070    0.3970   -3.3630 h1        1 MOL      0.025341
    147 H66         6.0760    0.1250   -3.9180 h1        1 MOL      0.025341
    148 N13         4.6870    2.1700    0.2870 n         1 MOL      0.064665
    149 C50         4.1810    2.4820    1.5710 c3        1 MOL     -0.188270
    150 C51         5.0480    1.8660    2.6570 c         1 MOL      0.496210
    151 O21         5.1110    2.3330    3.7740 o         1 MOL     -0.565198
    152 C52         2.7350    1.9410    1.6250 c3        1 MOL     -0.072354
    153 C53         1.8330    2.2620    0.3930 c3        1 MOL     -0.136321
    154 C54         0.4050    1.6890    0.5300 c         1 MOL      0.676690
    155 O22        -0.5700    2.3110    0.0140 o         1 MOL     -0.737478
    156 O23         0.2840    0.4880    0.8950 o         1 MOL     -0.737478
    157 H67         4.4240    1.2410   -0.0380 hn        1 MOL      0.001312
    158 H68         4.2160    3.5700    1.6490 h1        1 MOL      0.125157
    159 H69         2.1580    2.1480    2.5300 hc        1 MOL      0.074072
    160 H70         2.8390    0.8550    1.6570 hc        1 MOL      0.074072
    161 H71         2.3210    1.8280   -0.4730 hc        1 MOL      0.071468
    162 H72         1.7410    3.3470    0.3010 hc        1 MOL      0.071468
    163 N14         5.6930    0.7150    2.3440 n         1 MOL     -0.022386
    164 C55         6.7120    0.0570    3.2210 c3        1 MOL     -0.290374
    165 H73         7.5650    0.7220    3.3480 h1        1 MOL      0.102135
    166 H74         6.2700   -0.1580    4.1940 h1        1 MOL      0.102135
    167 H75         7.0430   -0.8740    2.7590 h1        1 MOL      0.102135
    168 H76         5.5740    0.3640    1.4070 hn        1 MOL      0.023349
    169 Ca1        -2.0410    0.0240   -0.2420 Ca        1 MOL      1.705802
    170 O24        -1.7000    0.3810    2.6190 oh        1 MOL     -0.821649
    171 H77        -1.8570    0.3900    3.5610 ho        1 MOL      0.395631
    172 H78        -0.7450    0.3780    2.5260 ho        1 MOL      0.395631
    173 O25        -3.8510   -1.1430    1.4880 oh        1 MOL     -0.821649
    174 H79        -4.6840   -0.9020    1.8900 ho        1 MOL      0.395631
    175 H80        -3.1900   -0.8490    2.1160 ho        1 MOL      0.395631
@<TRIPOS>BOND
     1    1    2 1   
     2    1    4 1   
     3    1    5 1   
     4    1    6 1   
     5    2    3 2   
     6    2    7 1   
     7    7    8 1   
     8    7   15 1   
     9    8    9 1   
    10    8   11 1   
    11    8   16 1   
    12    9   10 2   
    13    9   19 1   
    14   11   12 1   
    15   11   17 1   
    16   11   18 1   
    17   12   13 1   
    18   12   14 1   
    19   19   20 1   
    20   19   24 1   
    21   20   21 1   
    22   20   23 1   
    23   20   25 1   
    24   21   22 2   
    25   21   29 1   
    26   23   26 1   
    27   23   27 1   
    28   23   28 1   
    29   29   30 1   
    30   29   37 1   
    31   30   31 1   
    32   30   33 1   
    33   30   38 1   
    34   31   32 2   
    35   31   41 1   
    36   33   34 1   
    37   33   39 1   
    38   33   40 1   
    39   34   35 1   
    40   34   36 1   
    41   41   42 1   
    42   41   45 1   
    43   42   43 1   
    44   42   46 1   
    45   42   47 1   
    46   43   44 2   
    47   43   48 1   
    48   48   49 1   
    49   48   56 1   
    50   49   50 1   
    51   49   52 1   
    52   49   57 1   
    53   50   51 2   
    54   50   62 1   
    55   52   53 1   
    56   52   58 1   
    57   52   59 1   
    58   53   54 1   
    59   53   55 2   
    60   54   60 1   
    61   54   61 1   
    62   62   63 1   
    63   62   66 1   
    64   63   64 1   
    65   63   67 1   
    66   63   68 1   
    67   64   65 2   
    68   64   69 1   
    69   69   70 1   
    70   69   76 1   
    71   70   71 1   
    72   70   73 1   
    73   70   77 1   
    74   71   72 2   
    75   71   83 1   
    76   73   74 1   
    77   73   75 1   
    78   73   78 1   
    79   74   80 1   
    80   74   81 1   
    81   74   82 1   
    82   75   79 1   
    83   83   84 1   
    84   83   91 1   
    85   84   85 1   
    86   84   87 1   
    87   84   92 1   
    88   85   86 2   
    89   85  102 1   
    90   87   88 1   
    91   87   89 1   
    92   87   93 1   
    93   88   90 1   
    94   88   94 1   
    95   88   95 1   
    96   89   96 1   
    97   89   97 1   
    98   89   98 1   
    99   90   99 1   
   100   90  100 1   
   101   90  101 1   
   102  102  103 1   
   103  102  110 1   
   104  103  104 1   
   105  103  106 1   
   106  103  111 1   
   107  104  105 2   
   108  104  114 1   
   109  106  107 1   
   110  106  112 1   
   111  106  113 1   
   112  107  108 1   
   113  107  109 1   
   114  114  115 1   
   115  114  125 1   
   116  115  116 1   
   117  115  118 1   
   118  115  126 1   
   119  116  117 2   
   120  116  134 1   
   121  118  119 1   
   122  118  127 1   
   123  118  128 1   
   124  119  120 ar  
   125  119  121 ar  
   126  120  122 ar  
   127  120  129 1   
   128  121  123 ar  
   129  121  130 1   
   130  122  124 ar  
   131  122  131 1   
   132  123  124 ar  
   133  123  132 1   
   134  124  133 1   
   135  134  135 1   
   136  134  140 1   
   137  135  136 1   
   138  135  138 1   
   139  135  141 1   
   140  136  137 2   
   141  136  148 1   
   142  138  139 1   
   143  138  142 1   
   144  138  143 1   
   145  139  140 1   
   146  139  144 1   
   147  139  145 1   
   148  140  146 1   
   149  140  147 1   
   150  148  149 1   
   151  148  157 1   
   152  149  150 1   
   153  149  152 1   
   154  149  158 1   
   155  150  151 2   
   156  150  163 1   
   157  152  153 1   
   158  152  159 1   
   159  152  160 1   
   160  153  154 1   
   161  153  161 1   
   162  153  162 1   
   163  154  155 1   
   164  154  156 1   
   165  163  164 1   
   166  163  168 1   
   167  164  165 1   
   168  164  166 1   
   169  164  167 1   
   170  170  171 1   
   171  170  172 1   
   172  173  174 1   
   173  173  175 1   
@<TRIPOS>SUBSTRUCTURE
     1 MOL         1 TEMP              0 ****  ****    0 ROOT
