@<TRIPOS>MOLECULE
MOL
  179   176     1     0     0
SMALL
resp


@<TRIPOS>ATOM
      1 C1          0.9060    4.1870    3.7910 c3        1 MOL     -0.302404
      2 C2          0.2710    3.3010    2.6630 c         1 MOL      0.635141
      3 O1          0.8000    3.2940    1.5520 o         1 MOL     -0.535665
      4 H1          0.1180    4.7260    4.3160 hc        1 MOL      0.079397
      5 H2          1.4420    3.5510    4.4950 hc        1 MOL      0.079397
      6 H3          1.5990    4.9010    3.3450 hc        1 MOL      0.079397
      7 N1         -0.8480    2.5730    2.9470 n         1 MOL     -0.730553
      8 C3         -1.7080    2.0380    1.9120 c3        1 MOL      0.374520
      9 C4         -2.8540    3.0130    1.6680 c         1 MOL      0.556118
     10 O2         -3.9970    2.9400    2.1270 o         1 MOL     -0.503446
     11 C5         -2.1710    0.6230    2.3200 c3        1 MOL     -0.052913
     12 C6         -3.2220    0.0570    1.3580 c         1 MOL      0.354729
     13 O3         -4.2970   -0.4610    1.7600 o         1 MOL     -0.538206
     14 O4         -2.8240    0.0070    0.1650 o         1 MOL     -0.538206
     15 H4         -1.0930    2.5850    3.9310 hn        1 MOL      0.340651
     16 H5         -1.1580    1.9140    0.9810 h1        1 MOL     -0.010965
     17 H6         -2.6740    0.6780    3.2880 hc        1 MOL     -0.008617
     18 H7         -1.3160   -0.0520    2.3210 hc        1 MOL     -0.008617
     19 N2         -2.3920    4.0610    0.9180 n         1 MOL     -0.503246
     20 C7         -3.1530    5.3000    0.6860 c3        1 MOL      0.097439
     21 C8         -4.0800    5.1080   -0.5790 c         1 MOL      0.346691
     22 O5         -5.1590    5.6570   -0.6180 o         1 MOL     -0.534532
     23 C9         -2.1280    6.4620    0.4660 c3        1 MOL     -0.241239
     24 C10        -2.7970    7.8420    0.0050 c3        1 MOL     -0.041675
     25 C11        -3.4200    8.6200    1.1600 c3        1 MOL     -0.116443
     26 C12        -4.0230   10.0600    0.7860 c3        1 MOL      0.017926
     27 N3         -4.6090   10.7300    1.9920 n4        1 MOL     -0.231234
     28 H8         -1.4840    4.0220    0.4800 hn        1 MOL      0.342074
     29 H9         -3.8010    5.5160    1.5350 h1        1 MOL      0.087503
     30 H10        -1.4170    6.1100   -0.2770 hc        1 MOL      0.098203
     31 H11        -1.5780    6.6700    1.3770 hc        1 MOL      0.098203
     32 H12        -3.5660    7.6820   -0.7540 hc        1 MOL      0.065534
     33 H13        -2.1090    8.5670   -0.4310 hc        1 MOL      0.065534
     34 H14        -2.8440    8.7730    2.0700 hc        1 MOL      0.056894
     35 H15        -4.2700    8.0690    1.5700 hc        1 MOL      0.056894
     36 H16        -4.8100   10.0040    0.0300 hx        1 MOL      0.090148
     37 H17        -3.2060   10.6990    0.4590 hx        1 MOL      0.090148
     38 H18        -5.4330   10.2510    2.3380 hn        1 MOL      0.294775
     39 H19        -3.9290   10.6460    2.7390 hn        1 MOL      0.294775
     40 H20        -4.7300   11.7190    1.8870 hn        1 MOL      0.294775
     41 N4         -3.7180    4.2400   -1.5410 n         1 MOL     -0.106772
     42 C13        -4.4840    3.6660   -2.6240 c3        1 MOL     -0.075376
     43 C14        -5.5570    2.5990   -2.1170 c         1 MOL      0.312290
     44 O6         -6.4980    2.1930   -2.7940 o         1 MOL     -0.471941
     45 C15        -3.5440    2.9320   -3.5870 c3        1 MOL     -0.163677
     46 C16        -2.7730    1.8180   -2.8800 c         1 MOL      0.693186
     47 O7         -3.0710    0.6250   -3.1110 o         1 MOL     -0.654631
     48 O8         -1.8250    2.0830   -2.0750 o         1 MOL     -0.654631
     49 H21        -2.8560    3.7350   -1.3740 hn        1 MOL      0.094714
     50 H22        -4.9780    4.5470   -3.0290 h1        1 MOL      0.100420
     51 H23        -2.7770    3.6590   -3.8630 hc        1 MOL      0.048459
     52 H24        -4.0310    2.5190   -4.4670 hc        1 MOL      0.048459
     53 N5         -5.2690    2.0960   -0.9290 n         1 MOL      0.137776
     54 C17        -6.2080    1.2630   -0.1310 c3        1 MOL     -0.149258
     55 C18        -6.4550   -0.0750   -0.8770 c         1 MOL      0.506077
     56 O9         -7.5320   -0.2890   -1.4810 o         1 MOL     -0.551095
     57 H25        -4.4230    2.3380   -0.4520 hn        1 MOL      0.013299
     58 H26        -7.1300    1.7970    0.0950 h1        1 MOL      0.079625
     59 H27        -5.7430    0.9840    0.8180 h1        1 MOL      0.079625
     60 N6         -5.4850   -1.0290   -0.7740 n         1 MOL     -0.112036
     61 C19        -5.7510   -2.4480   -1.2380 c3        1 MOL      0.010093
     62 C20        -5.5030   -3.6020   -0.2150 c         1 MOL      0.251829
     63 O10        -5.4440   -4.8070   -0.4800 o         1 MOL     -0.410900
     64 C21        -4.9550   -2.6220   -2.4860 c3        1 MOL     -0.224503
     65 C22        -3.5580   -2.9400   -2.1980 c         1 MOL      0.446658
     66 N7         -3.0980   -4.0930   -2.6400 n         1 MOL     -0.542100
     67 O11        -2.7570   -2.2550   -1.6210 o         1 MOL     -0.580116
     68 H28        -4.6630   -0.8120   -0.2370 hn        1 MOL     -0.062135
     69 H29        -6.8080   -2.5190   -1.5080 h1        1 MOL      0.105089
     70 H30        -5.0000   -1.7100   -3.0790 hc        1 MOL      0.115417
     71 H31        -5.2860   -3.5070   -3.0160 hc        1 MOL      0.115417
     72 H32        -3.6500   -4.6270   -3.2840 hn        1 MOL      0.298001
     73 H33        -2.0860   -4.1300   -2.5840 hn        1 MOL      0.298001
     74 N8         -5.2680   -3.1500    1.0200 n         1 MOL     -0.163654
     75 C23        -4.8350   -3.9890    2.1480 c3        1 MOL     -0.201572
     76 C24        -3.3870   -4.4180    2.3050 c         1 MOL      0.668069
     77 O12        -3.0480   -5.1840    3.2170 o         1 MOL     -0.569104
     78 H34        -5.3820   -2.1500    1.0960 hn        1 MOL      0.220011
     79 H35        -5.3420   -4.9560    2.0910 h1        1 MOL      0.112751
     80 H36        -5.1240   -3.6900    3.1540 h1        1 MOL      0.112751
     81 N9         -2.4140   -3.8510    1.5120 n         1 MOL     -0.593753
     82 C25        -0.9770   -4.1050    1.5760 c3        1 MOL      0.058038
     83 C26        -0.0910   -2.8620    1.3810 c         1 MOL      0.636252
     84 O13        -0.3730   -1.9650    0.6050 o         1 MOL     -0.599934
     85 C27        -0.5880   -5.1050    0.4760 c3        1 MOL     -0.178214
     86 C28        -1.3470   -6.3950    0.4940 ca        1 MOL      0.263775
     87 C29        -0.6720   -7.5960    0.9170 ca        1 MOL     -0.329945
     88 C30        -2.6470   -6.4530   -0.0300 ca        1 MOL     -0.329945
     89 C31        -1.4000   -8.8150    0.8380 ca        1 MOL     -0.142397
     90 C32        -3.3530   -7.6950   -0.0280 ca        1 MOL     -0.142397
     91 C33        -2.7210   -8.8560    0.3020 ca        1 MOL      0.264289
     92 O14        -3.3850  -10.0680    0.2520 oh        1 MOL     -0.496651
     93 H37        -2.7910   -3.1660    0.8510 hn        1 MOL      0.487886
     94 H38        -0.7400   -4.5600    2.5440 h1        1 MOL      0.088361
     95 H39         0.4880   -5.2020    0.3930 hc        1 MOL      0.055108
     96 H40        -0.7580   -4.6140   -0.4840 hc        1 MOL      0.055108
     97 H41         0.2950   -7.5240    1.3820 ha        1 MOL      0.154339
     98 H42        -3.0620   -5.5860   -0.5130 ha        1 MOL      0.154339
     99 H43        -0.9530   -9.6680    1.3170 ha        1 MOL      0.120486
    100 H44        -4.3920   -7.7270   -0.3320 ha        1 MOL      0.120486
    101 H45        -2.9460  -10.7690    0.7340 ho        1 MOL      0.357832
    102 N10         0.9640   -2.8020    2.1550 n         1 MOL     -0.532235
    103 C34         2.1620   -1.8920    1.9790 c3        1 MOL      0.233058
    104 C35         3.2690   -2.6890    1.2190 c         1 MOL      0.452621
    105 O15         3.2530   -3.9180    1.2250 o         1 MOL     -0.554506
    106 C36         2.5450   -1.2990    3.3680 c3        1 MOL      0.015546
    107 C37         1.3730   -0.4390    3.9090 c3        1 MOL      0.086926
    108 C38         3.6890   -0.2550    3.2730 c3        1 MOL     -0.120840
    109 C39         1.5730   -0.1280    5.4640 c3        1 MOL     -0.291052
    110 H46         1.0250   -3.3890    2.9730 hn        1 MOL      0.273077
    111 H47         1.8800   -1.0600    1.3260 h1        1 MOL     -0.031198
    112 H48         2.7510   -2.1080    4.0690 hc        1 MOL      0.022568
    113 H49         0.4000   -0.9300    3.8080 hc        1 MOL      0.029496
    114 H50         1.2090    0.4440    3.2900 hc        1 MOL      0.029496
    115 H51         3.5410    0.5560    2.5730 hc        1 MOL      0.013822
    116 H52         3.8780    0.1280    4.2750 hc        1 MOL      0.013822
    117 H53         4.5510   -0.8400    2.9430 hc        1 MOL      0.013822
    118 H54         2.4010    0.5650    5.6260 hc        1 MOL      0.071702
    119 H55         0.6530    0.2750    5.8900 hc        1 MOL      0.071702
    120 H56         1.6880   -1.0660    6.0040 hc        1 MOL      0.071702
    121 N11         4.1540   -1.9770    0.5440 n         1 MOL     -0.124387
    122 C40         5.3250   -2.4790   -0.1360 c3        1 MOL      0.040146
    123 C41         6.5940   -1.5680    0.1340 c         1 MOL      0.288699
    124 O16         6.5600   -0.5280    0.9070 o         1 MOL     -0.370192
    125 C42         5.0370   -2.3810   -1.6460 c3        1 MOL     -0.299960
    126 O17         5.0630   -0.9960   -2.0220 oh        1 MOL     -0.411607
    127 H57         4.0920   -0.9790    0.4540 hn        1 MOL      0.116320
    128 H58         5.4980   -3.4950    0.1980 h1        1 MOL      0.090100
    129 H59         4.1830   -2.9060   -2.0720 h1        1 MOL      0.137965
    130 H60         5.8990   -2.7920   -2.1800 h1        1 MOL      0.137965
    131 H61         5.0270   -0.9940   -2.9850 ho        1 MOL      0.401020
    132 N12         7.7140   -1.9260   -0.4120 n         1 MOL     -0.219036
    133 C43         8.9430   -1.2270   -0.1560 c3        1 MOL      0.007370
    134 C44         8.8840    0.0930   -0.8020 c         1 MOL      0.520667
    135 O18         9.2910    1.0870   -0.2300 o         1 MOL     -0.539484
    136 C45        10.2810   -1.9860   -0.5300 c3        1 MOL     -0.297451
    137 H62         7.7780   -2.7340   -1.0060 hn        1 MOL      0.237286
    138 H63         8.8780   -1.1240    0.9260 h1        1 MOL      0.093271
    139 H64        10.2850   -3.0260   -0.1920 hc        1 MOL      0.104749
    140 H65        10.4580   -1.8160   -1.5900 hc        1 MOL      0.104749
    141 H66        11.1150   -1.5140   -0.0180 hc        1 MOL      0.104749
    142 N13         8.2030    0.2780   -1.9350 n         1 MOL     -0.349759
    143 C46         8.1310    1.5730   -2.6320 c3        1 MOL      0.099326
    144 C47         7.0740    2.4850   -1.8950 c         1 MOL      0.403425
    145 O19         7.2560    3.6700   -1.7730 o         1 MOL     -0.502900
    146 C48         7.7820    1.2200   -4.1250 c3        1 MOL     -0.346539
    147 H67         7.7160   -0.4600   -2.4200 hn        1 MOL      0.216790
    148 H68         9.1020    2.0820   -2.6050 h1        1 MOL      0.103709
    149 H69         6.8470    0.6590   -4.1940 hc        1 MOL      0.090370
    150 H70         7.6760    2.2400   -4.5010 hc        1 MOL      0.090370
    151 H71         8.4980    0.6230   -4.6810 hc        1 MOL      0.090370
    152 N14         6.0310    1.8930   -1.2910 n         1 MOL     -0.012598
    153 C49         5.0600    2.6040   -0.5470 c3        1 MOL     -0.148436
    154 C50         5.4210    3.0230    0.8410 c         1 MOL      0.486606
    155 O20         5.2180    4.1510    1.2240 o         1 MOL     -0.575619
    156 C51         3.7760    1.7060   -0.5050 c3        1 MOL      0.103948
    157 C52         2.9480    1.7880   -1.8570 c3        1 MOL     -0.060059
    158 C53         1.6240    1.0020   -1.8410 c         1 MOL      0.596547
    159 O21         1.1650    0.4400   -2.8300 o         1 MOL     -0.705098
    160 O22         0.9290    0.8730   -0.8080 o         1 MOL     -0.705098
    161 H72         5.9690    0.8870   -1.3600 hn        1 MOL     -0.011394
    162 H73         4.8680    3.4840   -1.1550 h1        1 MOL      0.078979
    163 H74         3.1020    2.0360    0.2900 hc        1 MOL      0.060147
    164 H75         4.1680    0.7050   -0.3540 hc        1 MOL      0.060147
    165 H76         3.5790    1.4080   -2.6550 hc        1 MOL     -0.006240
    166 H77         2.6950    2.8280   -2.0270 hc        1 MOL     -0.006240
    167 N15         5.9860    2.1700    1.5860 n         1 MOL     -0.007008
    168 C54         6.6030    2.5830    2.8420 c3        1 MOL     -0.330266
    169 H78         5.8630    3.0940    3.4590 h1        1 MOL      0.114970
    170 H79         6.9730    1.7050    3.3720 h1        1 MOL      0.114970
    171 H80         7.4320    3.2600    2.6350 h1        1 MOL      0.114970
    172 H81         6.1520    1.2280    1.2430 hn        1 MOL      0.097289
    173 Ca1        -1.0040   -0.4900   -1.5710 Ca        1 MOL      1.707768
    174 O23        -0.6510   -1.3130   -4.2200 oh        1 MOL     -0.810774
    175 H82        -0.9330   -1.0130   -5.0870 ho        1 MOL      0.397287
    176 H83        -0.2000   -2.1400   -4.3890 ho        1 MOL      0.397287
    177 O24         0.6360   -2.5330   -2.1700 oh        1 MOL     -0.810774
    178 H84         0.9140   -3.3350   -1.7260 ho        1 MOL      0.397287
    179 H85         1.2870   -2.3900   -2.8550 ho        1 MOL      0.397287
@<TRIPOS>BOND
     1    1    2 1   
     2    1    4 1   
     3    1    5 1   
     4    1    6 1   
     5    2    3 2   
     6    2    7 1   
     7    7    8 1   
     8    7   15 1   
     9    8    9 1   
    10    8   11 1   
    11    8   16 1   
    12    9   10 2   
    13    9   19 1   
    14   11   12 1   
    15   11   17 1   
    16   11   18 1   
    17   12   13 1   
    18   12   14 1   
    19   19   20 1   
    20   19   28 1   
    21   20   21 1   
    22   20   23 1   
    23   20   29 1   
    24   21   22 2   
    25   21   41 1   
    26   23   24 1   
    27   23   30 1   
    28   23   31 1   
    29   24   25 1   
    30   24   32 1   
    31   24   33 1   
    32   25   26 1   
    33   25   34 1   
    34   25   35 1   
    35   26   27 1   
    36   26   36 1   
    37   26   37 1   
    38   27   38 1   
    39   27   39 1   
    40   27   40 1   
    41   41   42 1   
    42   41   49 1   
    43   42   43 1   
    44   42   45 1   
    45   42   50 1   
    46   43   44 2   
    47   43   53 1   
    48   45   46 1   
    49   45   51 1   
    50   45   52 1   
    51   46   47 1   
    52   46   48 1   
    53   53   54 1   
    54   53   57 1   
    55   54   55 1   
    56   54   58 1   
    57   54   59 1   
    58   55   56 2   
    59   55   60 1   
    60   60   61 1   
    61   60   68 1   
    62   61   62 1   
    63   61   64 1   
    64   61   69 1   
    65   62   63 2   
    66   62   74 1   
    67   64   65 1   
    68   64   70 1   
    69   64   71 1   
    70   65   66 1   
    71   65   67 2   
    72   66   72 1   
    73   66   73 1   
    74   74   75 1   
    75   74   78 1   
    76   75   76 1   
    77   75   79 1   
    78   75   80 1   
    79   76   77 2   
    80   76   81 1   
    81   81   82 1   
    82   81   93 1   
    83   82   83 1   
    84   82   85 1   
    85   82   94 1   
    86   83   84 2   
    87   83  102 1   
    88   85   86 1   
    89   85   95 1   
    90   85   96 1   
    91   86   87 ar  
    92   86   88 ar  
    93   87   89 ar  
    94   87   97 1   
    95   88   90 ar  
    96   88   98 1   
    97   89   91 ar  
    98   89   99 1   
    99   90   91 ar  
   100   90  100 1   
   101   91   92 1   
   102   92  101 1   
   103  102  103 1   
   104  102  110 1   
   105  103  104 1   
   106  103  106 1   
   107  103  111 1   
   108  104  105 2   
   109  104  121 1   
   110  106  107 1   
   111  106  108 1   
   112  106  112 1   
   113  107  109 1   
   114  107  113 1   
   115  107  114 1   
   116  108  115 1   
   117  108  116 1   
   118  108  117 1   
   119  109  118 1   
   120  109  119 1   
   121  109  120 1   
   122  121  122 1   
   123  121  127 1   
   124  122  123 1   
   125  122  125 1   
   126  122  128 1   
   127  123  124 2   
   128  123  132 1   
   129  125  126 1   
   130  125  129 1   
   131  125  130 1   
   132  126  131 1   
   133  132  133 1   
   134  132  137 1   
   135  133  134 1   
   136  133  136 1   
   137  133  138 1   
   138  134  135 2   
   139  134  142 1   
   140  136  139 1   
   141  136  140 1   
   142  136  141 1   
   143  142  143 1   
   144  142  147 1   
   145  143  144 1   
   146  143  146 1   
   147  143  148 1   
   148  144  145 2   
   149  144  152 1   
   150  146  149 1   
   151  146  150 1   
   152  146  151 1   
   153  152  153 1   
   154  152  161 1   
   155  153  154 1   
   156  153  156 1   
   157  153  162 1   
   158  154  155 2   
   159  154  167 1   
   160  156  157 1   
   161  156  163 1   
   162  156  164 1   
   163  157  158 1   
   164  157  165 1   
   165  157  166 1   
   166  158  159 1   
   167  158  160 1   
   168  167  168 1   
   169  167  172 1   
   170  168  169 1   
   171  168  170 1   
   172  168  171 1   
   173  174  175 1   
   174  174  176 1   
   175  177  178 1   
   176  177  179 1   
@<TRIPOS>SUBSTRUCTURE
     1 MOL         1 TEMP              0 ****  ****    0 ROOT
