@<TRIPOS>MOLECULE
MOL
  189   185     1     0     0
SMALL
resp


@<TRIPOS>ATOM
      1 C1         -0.4870    4.2260   -4.9380 c3        1 MOL     -0.249872
      2 C2          0.2120    3.9250   -3.5770 c         1 MOL      0.487595
      3 O1         -0.2860    4.4560   -2.5070 o         1 MOL     -0.577897
      4 H1         -0.9120    3.3060   -5.3390 hc        1 MOL      0.083849
      5 H2         -1.2810    4.9560   -4.7860 hc        1 MOL      0.083849
      6 H3          0.2430    4.6240   -5.6420 hc        1 MOL      0.083849
      7 N1          1.2190    3.1020   -3.5500 n         1 MOL     -0.405545
      8 C3          1.8910    2.6580   -2.2960 c3        1 MOL      0.001425
      9 C4          2.5830    3.8290   -1.5490 c         1 MOL      0.261199
     10 O2          3.1080    4.7870   -2.1160 o         1 MOL     -0.512684
     11 C5          2.9930    1.6270   -2.5810 c3        1 MOL      0.003935
     12 C6          3.7750    1.1840   -1.3170 c         1 MOL      0.544796
     13 O3          3.0020    0.7920   -0.4390 o         1 MOL     -0.611560
     14 O4          4.9790    1.5950   -1.1740 o         1 MOL     -0.611560
     15 H4          1.4980    2.6600   -4.4080 hn        1 MOL      0.303046
     16 H5          1.1680    2.1790   -1.6360 h1        1 MOL      0.102315
     17 H6          3.6880    1.9470   -3.3600 hc        1 MOL      0.005592
     18 H7          2.5720    0.6750   -2.9050 hc        1 MOL      0.005592
     19 N2          2.6030    3.7370   -0.2370 n         1 MOL      0.087222
     20 C7          3.1770    4.7590    0.6640 c3        1 MOL      0.062957
     21 C8          4.1540    4.2190    1.8110 c         1 MOL      0.418286
     22 O5          4.7760    5.0510    2.4780 o         1 MOL     -0.556861
     23 C9          2.0260    5.5270    1.3150 c3        1 MOL     -0.262606
     24 C10         1.1380    6.2870    0.2700 c3        1 MOL      0.177396
     25 C11         1.9300    7.4120   -0.4670 c3        1 MOL     -0.099608
     26 C12         1.2860    7.8750   -1.7810 c3        1 MOL     -0.130965
     27 N3          1.3450    6.8640   -2.8530 n4        1 MOL     -0.124988
     28 H8          2.0730    2.9600    0.1410 hn        1 MOL      0.134567
     29 H9          3.8090    5.4470    0.1150 h1        1 MOL      0.053282
     30 H10         2.3680    6.2700    2.0350 hc        1 MOL      0.083768
     31 H11         1.2480    4.8690    1.7010 hc        1 MOL      0.083768
     32 H12         0.3680    6.8080    0.8240 hc        1 MOL     -0.004201
     33 H13         0.7360    5.5990   -0.4700 hc        1 MOL     -0.004201
     34 H14         2.9100    7.0780   -0.8340 hc        1 MOL      0.063612
     35 H15         2.0920    8.2390    0.2210 hc        1 MOL      0.063612
     36 H16         1.7840    8.7370   -2.2190 hx        1 MOL      0.088894
     37 H17         0.2930    8.1760   -1.4520 hx        1 MOL      0.088894
     38 H18         0.7890    6.0530   -2.6260 hn        1 MOL      0.254119
     39 H19         0.9380    7.2250   -3.6990 hn        1 MOL      0.254119
     40 H20         2.2930    6.6040   -3.0500 hn        1 MOL      0.254119
     41 N4          4.2630    2.9120    2.1340 n         1 MOL     -0.136683
     42 C13         5.1660    2.3830    3.2040 c3        1 MOL      0.022710
     43 C14         6.2790    1.4200    2.6810 c         1 MOL      0.412761
     44 O6          7.0800    0.9330    3.4210 o         1 MOL     -0.535570
     45 C15         4.3530    1.8570    4.3950 c3        1 MOL     -0.307033
     46 C16         3.2470    0.9380    3.9380 c         1 MOL      0.817504
     47 O7          2.3630    0.6130    4.7690 o         1 MOL     -0.721471
     48 O8          3.1820    0.4020    2.7780 o         1 MOL     -0.721471
     49 H21         3.7300    2.2350    1.6200 hn        1 MOL      0.018409
     50 H22         5.7670    3.2140    3.5940 h1        1 MOL      0.108366
     51 H23         3.9390    2.7200    4.9230 hc        1 MOL      0.093611
     52 H24         4.9420    1.2920    5.1190 hc        1 MOL      0.093611
     53 N5          6.4130    1.1610    1.3750 n         1 MOL     -0.116860
     54 C17         7.6000    0.5450    0.7880 c3        1 MOL     -0.366358
     55 C18         7.5620   -0.9890    0.7910 c         1 MOL      0.682779
     56 O9          8.4570   -1.6140    0.1670 o         1 MOL     -0.642931
     57 H25         5.7060    1.5660    0.7710 hn        1 MOL      0.127650
     58 H26         8.4600    0.8310    1.3980 h1        1 MOL      0.154116
     59 H27         7.6760    0.9030   -0.2360 h1        1 MOL      0.154116
     60 N6          6.5960   -1.5490    1.4080 n         1 MOL     -0.392520
     61 C19         6.2970   -2.9430    1.5740 c3        1 MOL     -0.087614
     62 C20         6.1630   -3.7670    0.3350 c         1 MOL      0.381269
     63 O10         5.9820   -4.9920    0.3880 o         1 MOL     -0.502735
     64 C21         5.1190   -3.1170    2.4900 c3        1 MOL     -0.315598
     65 C22         3.8010   -2.6570    1.8690 c         1 MOL      0.603956
     66 O11         3.5960   -2.4980    0.6630 o         1 MOL     -0.650593
     67 O12         2.8340   -2.5090    2.6460 o         1 MOL     -0.650593
     68 H28         5.9670   -0.9680    1.9410 hn        1 MOL      0.287178
     69 H29         7.1990   -3.3460    2.0490 h1        1 MOL      0.152405
     70 H30         5.3040   -2.4150    3.3080 hc        1 MOL      0.142693
     71 H31         5.0700   -4.0910    2.9820 hc        1 MOL      0.142693
     72 N7          6.3840   -3.2260   -0.9050 n         1 MOL     -0.068239
     73 C23         6.3220   -3.9310   -2.1560 c3        1 MOL     -0.412094
     74 C24         4.9080   -4.3290   -2.5350 c         1 MOL      0.574677
     75 O13         4.7590   -5.2860   -3.3350 o         1 MOL     -0.561856
     76 H32         6.5090   -2.2250   -0.9890 hn        1 MOL      0.248190
     77 H33         6.8300   -4.8900   -2.0180 h1        1 MOL      0.171500
     78 H34         6.6510   -3.3060   -2.9830 h1        1 MOL      0.171500
     79 N8          3.8540   -3.7820   -1.8660 n         1 MOL     -0.215137
     80 C25         2.4660   -4.2150   -2.0840 c3        1 MOL     -0.288794
     81 C26         1.4310   -3.0480   -1.9500 c         1 MOL      0.782006
     82 O14         1.7000   -1.9860   -1.4630 o         1 MOL     -0.575512
     83 C27         2.0000   -5.4100   -1.1590 c3        1 MOL      0.347931
     84 C28         2.9010   -6.6220   -1.3750 c3        1 MOL     -0.407242
     85 O15         2.2420   -5.0310    0.2290 oh        1 MOL     -0.602863
     86 H35         4.0440   -3.1010   -1.1520 hn        1 MOL      0.121588
     87 H36         2.4090   -4.6020   -3.0930 h1        1 MOL      0.111205
     88 H37         0.9300   -5.5540   -1.3160 h1        1 MOL      0.041377
     89 H38         2.9930   -4.4360    0.2090 ho        1 MOL      0.455903
     90 H39         2.9650   -6.7900   -2.4470 hc        1 MOL      0.116387
     91 H40         3.9010   -6.4480   -0.9550 hc        1 MOL      0.116387
     92 H41         2.4480   -7.5380   -1.0170 hc        1 MOL      0.116387
     93 N9          0.2250   -3.3170   -2.4620 n         1 MOL     -0.772808
     94 C29        -0.8550   -2.3240   -2.3950 c3        1 MOL      0.041062
     95 C30        -1.9870   -3.0000   -1.5990 c         1 MOL      0.505587
     96 O16        -2.4520   -4.0790   -1.9680 o         1 MOL     -0.550313
     97 C31        -1.4490   -1.8110   -3.7120 c3        1 MOL      0.604248
     98 C32        -0.3710   -1.4830   -4.7090 c3        1 MOL     -0.099027
     99 C33        -2.2650   -0.5270   -3.4310 c3        1 MOL     -0.857131
    100 C34        -0.9250   -1.0150   -6.0350 c3        1 MOL     -0.076848
    101 H42         0.0240   -4.2540   -2.8050 hn        1 MOL      0.347808
    102 H43        -0.4680   -1.4680   -1.8420 h1        1 MOL      0.007131
    103 H44        -2.0900   -2.5950   -4.1280 hc        1 MOL     -0.090428
    104 H45         0.1420   -2.4050   -4.9830 hc        1 MOL      0.029347
    105 H46         0.3090   -0.7230   -4.3120 hc        1 MOL      0.029347
    106 H47        -2.8050   -0.2140   -4.3220 hc        1 MOL      0.170967
    107 H48        -3.0710   -0.7270   -2.7200 hc        1 MOL      0.170967
    108 H49        -1.5680    0.2420   -3.1150 hc        1 MOL      0.170967
    109 H50        -0.1370   -0.7270   -6.7280 hc        1 MOL      0.016494
    110 H51        -1.2950   -1.8240   -6.6660 hc        1 MOL      0.016494
    111 H52        -1.7650   -0.3250   -6.0790 hc        1 MOL      0.016494
    112 N10        -2.5050   -2.2120   -0.6340 n         1 MOL     -0.305913
    113 C35        -3.7720   -2.5250    0.1400 c3        1 MOL     -0.018634
    114 C36        -5.0690   -2.2390   -0.6520 c         1 MOL      0.439743
    115 O17        -5.0290   -1.4060   -1.5520 o         1 MOL     -0.388472
    116 C37        -3.7240   -1.8820    1.5580 c3        1 MOL     -0.149268
    117 C38        -2.5510   -2.4410    2.3840 c3        1 MOL     -0.318461
    118 O18        -3.6330   -0.4790    1.4410 oh        1 MOL     -0.189934
    119 H53        -1.9310   -1.4280   -0.3800 hn        1 MOL      0.347647
    120 H54        -3.7460   -3.6070    0.2720 h1        1 MOL      0.074530
    121 H55        -4.6230   -2.2550    2.0390 h1        1 MOL      0.066157
    122 H56        -3.0790   -0.2140    2.1820 ho        1 MOL      0.333306
    123 H57        -2.5380   -3.5160    2.1950 hc        1 MOL      0.111597
    124 H58        -1.6450   -1.9590    2.0240 hc        1 MOL      0.111597
    125 H59        -2.7270   -2.3500    3.4510 hc        1 MOL      0.111597
    126 N11        -6.1970   -2.7740   -0.3390 n         1 MOL     -0.356783
    127 C39        -7.5510   -2.1390   -0.6760 c3        1 MOL     -0.072119
    128 C40        -7.5380   -0.6490   -0.2720 c         1 MOL      0.222794
    129 O19        -8.1200    0.2460   -0.9840 o         1 MOL     -0.469308
    130 C41        -8.7100   -2.8720   -0.0340 c3        1 MOL      0.263290
    131 C42        -9.0700   -4.2800   -0.6560 c3        1 MOL     -0.326807
    132 O20        -8.4730   -3.1600    1.2740 oh        1 MOL     -0.630974
    133 H60        -6.3060   -3.5340    0.3050 hn        1 MOL      0.307520
    134 H61        -7.7420   -2.1050   -1.7510 h1        1 MOL      0.145575
    135 H62        -9.6230   -2.2780   -0.1130 h1        1 MOL      0.063796
    136 H63        -9.2610   -3.0280    1.7960 ho        1 MOL      0.419265
    137 H64        -9.3580   -4.1320   -1.6920 hc        1 MOL      0.097196
    138 H65        -8.2520   -4.9950   -0.6430 hc        1 MOL      0.097196
    139 H66        -9.9900   -4.6620   -0.1940 hc        1 MOL      0.097196
    140 N12        -6.8970   -0.2110    0.7990 n         1 MOL     -0.057684
    141 C43        -7.0210    1.1680    1.3230 c3        1 MOL     -0.074834
    142 C44        -6.1820    2.2150    0.5530 c         1 MOL      0.252640
    143 O21        -6.7250    3.3210    0.2390 o         1 MOL     -0.470430
    144 C45        -6.7130    1.1180    2.8100 c3        1 MOL      0.083946
    145 C46        -7.7460    0.2970    3.6580 c3        1 MOL      0.084176
    146 C47        -7.5650    0.3530    5.1780 c3        1 MOL     -0.048134
    147 C48        -6.2480   -0.2820    5.6170 c3        1 MOL      0.207552
    148 N13        -6.0360   -0.1170    7.1070 n4        1 MOL     -0.602454
    149 H67        -6.2010   -0.8130    1.2160 hn        1 MOL      0.127398
    150 H68        -8.0320    1.5380    1.1650 h1        1 MOL      0.128950
    151 H69        -6.7400    2.1340    3.1940 hc        1 MOL     -0.019192
    152 H70        -5.7060    0.7100    2.9020 hc        1 MOL     -0.019192
    153 H71        -7.8190   -0.7290    3.2940 hc        1 MOL     -0.018095
    154 H72        -8.6950    0.7920    3.4800 hc        1 MOL     -0.018095
    155 H73        -8.4380   -0.1560    5.6060 hc        1 MOL      0.042342
    156 H74        -7.4950    1.4140    5.4310 hc        1 MOL      0.042342
    157 H75        -5.5410    0.2670    4.9980 hx        1 MOL      0.022264
    158 H76        -6.1880   -1.3230    5.3130 hx        1 MOL      0.022264
    159 H77        -5.1810   -0.5640    7.4100 hn        1 MOL      0.388889
    160 H78        -5.8180    0.8360    7.3610 hn        1 MOL      0.388889
    161 H79        -6.7230   -0.6030    7.6590 hn        1 MOL      0.388889
    162 N14        -4.9400    1.8620    0.2270 n         1 MOL      0.009864
    163 C49        -4.0410    2.6270   -0.6720 c3        1 MOL     -0.175581
    164 C50        -4.6370    2.6490   -2.0850 c         1 MOL      0.402437
    165 O22        -4.3820    3.6820   -2.7010 o         1 MOL     -0.532848
    166 C51        -2.6290    1.9870   -0.6300 c3        1 MOL     -0.035053
    167 C52        -1.8860    2.1980    0.6180 c3        1 MOL     -0.222723
    168 C53        -0.7500    1.1810    0.6940 c         1 MOL      0.578359
    169 O23         0.3830    1.5000    1.0960 o         1 MOL     -0.686763
    170 O24        -0.8330   -0.0400    0.4210 o         1 MOL     -0.686763
    171 H80        -4.5800    0.9970    0.6160 hn        1 MOL      0.017810
    172 H81        -3.9000    3.6670   -0.3620 h1        1 MOL      0.120877
    173 H82        -2.0510    2.4790   -1.4140 hc        1 MOL      0.132168
    174 H83        -2.6970    0.9170   -0.8380 hc        1 MOL      0.132168
    175 H84        -2.6500    2.0120    1.3750 hc        1 MOL      0.036670
    176 H85        -1.4910    3.2060    0.7710 hc        1 MOL      0.036670
    177 N15        -5.3340    1.6120   -2.5290 n         1 MOL     -0.007470
    178 C54        -6.0060    1.5660   -3.8160 c3        1 MOL     -0.301148
    179 H86        -6.3020    0.5390   -4.0340 h1        1 MOL      0.109788
    180 H87        -6.8910    2.2010   -3.7880 h1        1 MOL      0.109788
    181 H88        -5.3280    1.9210   -4.5930 h1        1 MOL      0.109788
    182 H89        -5.3030    0.8280   -1.8950 hn        1 MOL      0.160833
    183 Ca1         1.6410   -0.7260    1.0180 Ca        1 MOL      1.678227
    184 O25         0.1830   -0.5780    3.5800 oh        1 MOL     -0.752169
    185 H90         0.8730   -0.2360    4.1620 ho        1 MOL      0.356730
    186 H91        -0.5710   -0.0110    3.7420 ho        1 MOL      0.356730
    187 O26         0.3260   -3.2200    1.0770 oh        1 MOL     -0.752169
    188 H92        -0.1030   -3.6650    1.8060 ho        1 MOL      0.356730
    189 H93         0.8790   -3.8880    0.6800 ho        1 MOL      0.356730
@<TRIPOS>BOND
     1    1    2 1   
     2    1    4 1   
     3    1    5 1   
     4    1    6 1   
     5    2    3 2   
     6    2    7 1   
     7    7    8 1   
     8    7   15 1   
     9    8    9 1   
    10    8   11 1   
    11    8   16 1   
    12    9   10 2   
    13    9   19 1   
    14   11   12 1   
    15   11   17 1   
    16   11   18 1   
    17   12   13 1   
    18   12   14 1   
    19   19   20 1   
    20   19   28 1   
    21   20   21 1   
    22   20   23 1   
    23   20   29 1   
    24   21   22 2   
    25   21   41 1   
    26   23   24 1   
    27   23   30 1   
    28   23   31 1   
    29   24   25 1   
    30   24   32 1   
    31   24   33 1   
    32   25   26 1   
    33   25   34 1   
    34   25   35 1   
    35   26   27 1   
    36   26   36 1   
    37   26   37 1   
    38   27   38 1   
    39   27   39 1   
    40   27   40 1   
    41   41   42 1   
    42   41   49 1   
    43   42   43 1   
    44   42   45 1   
    45   42   50 1   
    46   43   44 2   
    47   43   53 1   
    48   45   46 1   
    49   45   51 1   
    50   45   52 1   
    51   46   47 1   
    52   46   48 1   
    53   53   54 1   
    54   53   57 1   
    55   54   55 1   
    56   54   58 1   
    57   54   59 1   
    58   55   56 2   
    59   55   60 1   
    60   60   61 1   
    61   60   68 1   
    62   61   62 1   
    63   61   64 1   
    64   61   69 1   
    65   62   63 2   
    66   62   72 1   
    67   64   65 1   
    68   64   70 1   
    69   64   71 1   
    70   65   66 1   
    71   65   67 1   
    72   72   73 1   
    73   72   76 1   
    74   73   74 1   
    75   73   77 1   
    76   73   78 1   
    77   74   75 2   
    78   74   79 1   
    79   79   80 1   
    80   79   86 1   
    81   80   81 1   
    82   80   83 1   
    83   80   87 1   
    84   81   82 2   
    85   81   93 1   
    86   83   84 1   
    87   83   85 1   
    88   83   88 1   
    89   84   90 1   
    90   84   91 1   
    91   84   92 1   
    92   85   89 1   
    93   93   94 1   
    94   93  101 1   
    95   94   95 1   
    96   94   97 1   
    97   94  102 1   
    98   95   96 2   
    99   95  112 1   
   100   97   98 1   
   101   97   99 1   
   102   97  103 1   
   103   98  100 1   
   104   98  104 1   
   105   98  105 1   
   106   99  106 1   
   107   99  107 1   
   108   99  108 1   
   109  100  109 1   
   110  100  110 1   
   111  100  111 1   
   112  112  113 1   
   113  112  119 1   
   114  113  114 1   
   115  113  116 1   
   116  113  120 1   
   117  114  115 2   
   118  114  126 1   
   119  116  117 1   
   120  116  118 1   
   121  116  121 1   
   122  117  123 1   
   123  117  124 1   
   124  117  125 1   
   125  118  122 1   
   126  126  127 1   
   127  126  133 1   
   128  127  128 1   
   129  127  130 1   
   130  127  134 1   
   131  128  129 2   
   132  128  140 1   
   133  130  131 1   
   134  130  132 1   
   135  130  135 1   
   136  131  137 1   
   137  131  138 1   
   138  131  139 1   
   139  132  136 1   
   140  140  141 1   
   141  140  149 1   
   142  141  142 1   
   143  141  144 1   
   144  141  150 1   
   145  142  143 2   
   146  142  162 1   
   147  144  145 1   
   148  144  151 1   
   149  144  152 1   
   150  145  146 1   
   151  145  153 1   
   152  145  154 1   
   153  146  147 1   
   154  146  155 1   
   155  146  156 1   
   156  147  148 1   
   157  147  157 1   
   158  147  158 1   
   159  148  159 1   
   160  148  160 1   
   161  148  161 1   
   162  162  163 1   
   163  162  171 1   
   164  163  164 1   
   165  163  166 1   
   166  163  172 1   
   167  164  165 2   
   168  164  177 1   
   169  166  167 1   
   170  166  173 1   
   171  166  174 1   
   172  167  168 1   
   173  167  175 1   
   174  167  176 1   
   175  168  169 1   
   176  168  170 1   
   177  177  178 1   
   178  177  182 1   
   179  178  179 1   
   180  178  180 1   
   181  178  181 1   
   182  184  185 1   
   183  184  186 1   
   184  187  188 1   
   185  187  189 1   
@<TRIPOS>SUBSTRUCTURE
     1 MOL         1 TEMP              0 ****  ****    0 ROOT
