@<TRIPOS>MOLECULE
MOL
  172   171     1     0     0
SMALL
resp


@<TRIPOS>ATOM
      1 C1          0.6240    3.4640    5.8270 c3        1 MOL     -0.424629
      2 C2         -0.0020    3.4990    4.4410 c         1 MOL      0.642821
      3 O1          0.7370    3.5720    3.4350 o         1 MOL     -0.533163
      4 H1          1.6530    3.8180    5.7690 hc        1 MOL      0.112889
      5 H2          0.0550    4.1070    6.4980 hc        1 MOL      0.112889
      6 H3          0.6130    2.4420    6.2050 hc        1 MOL      0.112889
      7 N1         -1.3030    3.3650    4.2070 n         1 MOL     -0.542987
      8 C3         -1.9470    3.2460    2.9040 c3        1 MOL      0.152961
      9 C4         -1.9720    4.5190    2.1110 c         1 MOL      0.533455
     10 O2         -1.9190    5.6650    2.5880 o         1 MOL     -0.563241
     11 C5         -3.4170    2.7920    3.0550 c3        1 MOL     -0.452947
     12 C6         -4.0490    2.5300    1.6710 c         1 MOL      0.833891
     13 O3         -3.4260    1.8150    0.8820 o         1 MOL     -0.674648
     14 O4         -5.1350    3.0750    1.4160 o         1 MOL     -0.674648
     15 H4         -1.8620    3.2600    5.0420 hn        1 MOL      0.294836
     16 H5         -1.3600    2.4810    2.3880 h1        1 MOL      0.071347
     17 H6         -3.9880    3.4860    3.6810 hc        1 MOL      0.095194
     18 H7         -3.3680    1.9170    3.7080 hc        1 MOL      0.095194
     19 N2         -2.0930    4.4360    0.7480 n         1 MOL     -0.538095
     20 C7         -2.3940    5.5890   -0.1310 c3        1 MOL      0.486073
     21 C8         -3.4740    5.2960   -1.1970 c         1 MOL      0.248029
     22 O5         -3.7670    6.1650   -1.9910 o         1 MOL     -0.552016
     23 C9         -1.0660    6.0350   -0.7430 c3        1 MOL     -0.363055
     24 H8         -2.0940    3.5220    0.3230 hn        1 MOL      0.404531
     25 H9         -2.7510    6.3620    0.5440 h1        1 MOL     -0.005775
     26 H10        -1.0080    7.1310   -0.7820 hc        1 MOL      0.079618
     27 H11        -0.2650    5.7330   -0.0630 hc        1 MOL      0.079618
     28 H12        -0.8470    5.5600   -1.7010 hc        1 MOL      0.079618
     29 N3         -3.9890    4.0550   -1.3730 n         1 MOL     -0.062363
     30 C10        -4.7760    3.6460   -2.5860 c3        1 MOL      0.313794
     31 C11        -6.0380    2.8410   -2.2920 c         1 MOL      0.176724
     32 O6         -6.9090    2.8100   -3.2130 o         1 MOL     -0.533460
     33 C12        -3.9950    2.7100   -3.5120 c3        1 MOL     -0.348261
     34 C13        -3.2930    1.6370   -2.7770 c         1 MOL      0.755166
     35 O7         -3.9460    0.8530   -2.1280 o         1 MOL     -0.709693
     36 O8         -2.0060    1.5210   -2.8570 o         1 MOL     -0.709693
     37 H13        -3.7890    3.3020   -0.7330 hn        1 MOL     -0.111893
     38 H14        -5.1180    4.5300   -3.1360 h1        1 MOL      0.037793
     39 H15        -3.2420    3.3740   -3.9140 hc        1 MOL      0.078518
     40 H16        -4.7040    2.3920   -4.2720 hc        1 MOL      0.078518
     41 N4         -6.1440    2.1640   -1.1240 n         1 MOL      0.054386
     42 C14        -7.3290    1.5100   -0.6120 c3        1 MOL     -0.289800
     43 C15        -7.3460   -0.0220   -0.8760 c         1 MOL      0.569716
     44 O9         -8.2060   -0.7250   -0.2400 o         1 MOL     -0.645792
     45 H17        -5.5350    2.3320   -0.3400 hn        1 MOL      0.096950
     46 H18        -8.2500    1.9040   -1.0270 h1        1 MOL      0.127702
     47 H19        -7.2980    1.5880    0.4790 h1        1 MOL      0.127702
     48 N5         -6.4230   -0.5920   -1.6260 n         1 MOL     -0.369839
     49 C16        -6.4480   -1.9510   -2.0740 c3        1 MOL      0.058403
     50 C17        -6.3130   -3.0480   -0.9180 c         1 MOL      0.426748
     51 O10        -6.4080   -4.2510   -1.2350 o         1 MOL     -0.545928
     52 C18        -5.2920   -2.1880   -3.1060 c3        1 MOL     -0.250017
     53 C19        -3.8590   -2.1690   -2.5660 c         1 MOL      0.690566
     54 N6         -2.8070   -2.0890   -3.3710 n         1 MOL     -0.687047
     55 O11        -3.6910   -2.0680   -1.3880 o         1 MOL     -0.644203
     56 H20        -5.6760   -0.0180   -1.9750 hn        1 MOL      0.288154
     57 H21        -7.4150   -2.1460   -2.5260 h1        1 MOL      0.097015
     58 H22        -5.4190   -1.4200   -3.8670 hc        1 MOL      0.077635
     59 H23        -5.3640   -3.1080   -3.6740 hc        1 MOL      0.077635
     60 H24        -3.1700   -1.7040   -4.2300 hn        1 MOL      0.311142
     61 H25        -1.8470   -1.8850   -3.1170 hn        1 MOL      0.311142
     62 N7         -6.2230   -2.7010    0.3730 n         1 MOL     -0.227381
     63 C20        -6.1610   -3.5440    1.5670 c3        1 MOL      0.002714
     64 C21        -4.8910   -4.2590    1.8060 c         1 MOL      0.411831
     65 O12        -4.9480   -5.3010    2.4910 o         1 MOL     -0.570107
     66 H26        -6.3110   -1.7060    0.5330 hn        1 MOL      0.266923
     67 H27        -7.0830   -4.1070    1.6780 h1        1 MOL      0.050050
     68 H28        -6.2800   -2.8500    2.4030 h1        1 MOL      0.050050
     69 N8         -3.8030   -3.8700    1.1670 n         1 MOL     -0.045588
     70 C22        -2.5380   -4.5860    1.1880 c3        1 MOL     -0.416122
     71 C23        -1.3820   -3.6170    1.1970 c         1 MOL      0.532646
     72 O13        -1.4690   -2.5680    0.5250 o         1 MOL     -0.441379
     73 C24        -2.3310   -5.4590   -0.0660 c3        1 MOL      0.621356
     74 C25        -3.4220   -6.5220   -0.1580 c3        1 MOL     -0.559672
     75 O14        -2.2920   -4.7570   -1.3110 oh        1 MOL     -0.609401
     76 H29        -3.7840   -3.0970    0.5120 hn        1 MOL      0.217214
     77 H30        -2.5500   -5.3110    2.0110 h1        1 MOL      0.122437
     78 H31        -1.3820   -5.9990   -0.0330 h1        1 MOL     -0.057231
     79 H32        -1.9620   -3.8760   -1.1460 ho        1 MOL      0.363435
     80 H33        -4.1940   -6.0700   -0.7790 hc        1 MOL      0.140902
     81 H34        -3.0310   -7.4040   -0.6670 hc        1 MOL      0.140902
     82 H35        -3.8470   -6.8360    0.7990 hc        1 MOL      0.140902
     83 N9         -0.3210   -4.0020    1.8830 n         1 MOL     -0.407865
     84 C26         0.8630   -3.0970    1.9320 c3        1 MOL     -0.075779
     85 C27         1.5330   -3.2460    0.5540 c         1 MOL      0.430606
     86 O15         1.9930   -4.3600    0.1880 o         1 MOL     -0.570342
     87 C28         1.8880   -3.4570    3.1060 c3        1 MOL      0.197242
     88 C29         1.2800   -3.9610    4.4800 c3        1 MOL     -0.105535
     89 C30         2.7190   -2.2250    3.3380 c3        1 MOL     -0.098652
     90 C31         0.9050   -2.8150    5.4230 c3        1 MOL     -0.085147
     91 H36        -0.3210   -4.8940    2.3440 hn        1 MOL      0.282754
     92 H37         0.4720   -2.0790    1.9320 h1        1 MOL      0.187261
     93 H38         2.5690   -4.2520    2.8190 hc        1 MOL     -0.018584
     94 H39         2.0820   -4.5740    4.9050 hc        1 MOL      0.022351
     95 H40         0.4200   -4.5960    4.2880 hc        1 MOL      0.022351
     96 H41         3.2550   -2.0300    2.4040 hc        1 MOL      0.024385
     97 H42         2.0680   -1.3650    3.4490 hc        1 MOL      0.024385
     98 H43         3.4360   -2.3640    4.1500 hc        1 MOL      0.024385
     99 H44         0.1750   -2.1790    4.9140 hc        1 MOL      0.022695
    100 H45         0.4730   -3.2500    6.3280 hc        1 MOL      0.022695
    101 H46         1.7150   -2.2100    5.8210 hc        1 MOL      0.022695
    102 N10         1.6440   -2.1430   -0.2010 n         1 MOL     -0.009029
    103 C32         2.5220   -1.9430   -1.3590 c3        1 MOL      0.105662
    104 C33         3.9860   -1.4150   -1.0430 c         1 MOL      0.355601
    105 O16         4.1810   -0.9040    0.0440 o         1 MOL     -0.254532
    106 C34         1.8920   -0.9280   -2.2890 c3        1 MOL     -0.384294
    107 C35         0.4570   -1.2920   -2.6140 c         1 MOL      0.823955
    108 O17        -0.4950   -1.1090   -1.8220 o         1 MOL     -0.670041
    109 O18         0.2610   -1.7330   -3.7290 o         1 MOL     -0.670041
    110 H47         1.1530   -1.3210    0.1310 hn        1 MOL     -0.289743
    111 H48         2.6640   -2.8810   -1.9020 h1        1 MOL      0.050960
    112 H49         2.4620   -0.9120   -3.2170 hc        1 MOL      0.114590
    113 H50         1.9010    0.0090   -1.7170 hc        1 MOL      0.114590
    114 N11         4.9570   -1.5680   -1.9470 n         1 MOL     -0.600709
    115 C36         6.3870   -1.3110   -1.5540 c3        1 MOL      0.422101
    116 C37         6.7850    0.1360   -1.0730 c         1 MOL      0.235429
    117 O19         7.4500    0.2250   -0.0460 o         1 MOL     -0.436981
    118 C38         7.3170   -1.6880   -2.6960 c3        1 MOL     -0.324426
    119 C39         8.8210   -1.4930   -2.3620 ca        1 MOL      0.169517
    120 C40         9.5450   -2.4860   -1.5470 ca        1 MOL     -0.267456
    121 C41         9.5160   -0.3250   -2.7420 ca        1 MOL     -0.267456
    122 C42        10.8780   -2.3060   -1.1280 ca        1 MOL      0.023616
    123 C43        10.8540   -0.1570   -2.2960 ca        1 MOL      0.023616
    124 C44        11.5270   -1.1230   -1.4930 ca        1 MOL     -0.253892
    125 H51         4.7190   -1.9040   -2.8710 hn        1 MOL      0.338213
    126 H52         6.5630   -1.9890   -0.7160 h1        1 MOL      0.033267
    127 H53         7.0070   -1.0880   -3.5600 hc        1 MOL      0.083537
    128 H54         7.1190   -2.7380   -2.8710 hc        1 MOL      0.083537
    129 H55         8.9620   -3.3370   -1.2290 ha        1 MOL      0.140974
    130 H56         9.0050    0.4650   -3.2860 ha        1 MOL      0.140974
    131 H57        11.3820   -3.0550   -0.5340 ha        1 MOL      0.082495
    132 H58        11.3850    0.6850   -2.6980 ha        1 MOL      0.082495
    133 H59        12.4920   -0.9100   -1.0540 ha        1 MOL      0.135578
    134 N12         6.3190    1.2140   -1.7430 n         1 MOL     -0.032345
    135 C45         6.3830    2.5720   -1.1250 c3        1 MOL      0.048349
    136 C46         5.7660    2.6020    0.3240 c         1 MOL      0.217693
    137 O20         6.3500    3.3220    1.1570 o         1 MOL     -0.495684
    138 C47         5.6940    3.4470   -2.1400 c3        1 MOL      0.138341
    139 C48         5.7690    2.7660   -3.5030 c3        1 MOL     -0.284393
    140 C49         5.6460    1.3280   -3.0360 c3        1 MOL      0.073285
    141 H60         7.4420    2.8060   -1.1300 h1        1 MOL      0.035881
    142 H61         4.6340    3.4600   -1.8870 hc        1 MOL      0.000041
    143 H62         6.1050    4.4600   -2.0970 hc        1 MOL      0.000041
    144 H63         4.8780    2.9940   -4.0970 hc        1 MOL      0.087598
    145 H64         6.7170    3.0210   -3.9560 hc        1 MOL      0.087598
    146 H65         4.6070    1.0180   -2.9290 h1        1 MOL      0.022348
    147 H66         6.0520    0.6020   -3.7440 h1        1 MOL      0.022348
    148 N13         4.6660    1.8910    0.6060 n         1 MOL      0.037170
    149 C50         3.9560    1.9320    1.8580 c3        1 MOL     -0.128982
    150 C51         4.5490    1.0680    2.9580 c         1 MOL      0.427679
    151 O21         4.2860    1.3450    4.1010 o         1 MOL     -0.575664
    152 C52         2.4930    1.3340    1.6400 c3        1 MOL     -0.239221
    153 C53         1.7310    2.0470    0.5760 c3        1 MOL     -0.388107
    154 C54         0.3100    1.6370    0.4530 c         1 MOL      0.794102
    155 O22        -0.5490    2.2230   -0.2590 o         1 MOL     -0.730434
    156 O23         0.0010    0.4930    0.8950 o         1 MOL     -0.730434
    157 H67         4.4920    1.1390   -0.0460 hn        1 MOL      0.066663
    158 H68         3.7730    2.9650    2.1540 h1        1 MOL      0.153266
    159 H69         1.9690    1.3460    2.5910 hc        1 MOL      0.169631
    160 H70         2.4110    0.2890    1.3360 hc        1 MOL      0.169631
    161 H71         2.1380    2.0670   -0.4340 hc        1 MOL      0.126328
    162 H72         1.8310    3.0680    0.9390 hc        1 MOL      0.126328
    163 N14         5.2880    0.1090    2.5390 n         1 MOL      0.007486
    164 C55         6.2880   -0.7640    3.1830 c3        1 MOL     -0.109588
    165 H73         6.5890   -0.3290    4.1360 h1        1 MOL      0.051135
    166 H74         5.8540   -1.7490    3.3550 h1        1 MOL      0.051135
    167 H75         7.1600   -0.8580    2.5350 h1        1 MOL      0.051135
    168 H76         5.0390   -0.1290    1.5870 hn        1 MOL     -0.003299
    169 Ca1        -2.2570   -0.0390   -0.4130 Ca        1 MOL      1.744605
    170 O24        -3.6960   -0.9490    1.7550 oh        1 MOL     -1.077242
    171 H77        -3.0820   -0.8400    2.4740 ho        1 MOL      0.469509
    172 H78        -4.5580   -0.9820    2.1750 ho        1 MOL      0.469509
@<TRIPOS>BOND
     1    1    2 1   
     2    1    4 1   
     3    1    5 1   
     4    1    6 1   
     5    2    3 2   
     6    2    7 1   
     7    7    8 1   
     8    7   15 1   
     9    8    9 1   
    10    8   11 1   
    11    8   16 1   
    12    9   10 2   
    13    9   19 1   
    14   11   12 1   
    15   11   17 1   
    16   11   18 1   
    17   12   13 1   
    18   12   14 1   
    19   19   20 1   
    20   19   24 1   
    21   20   21 1   
    22   20   23 1   
    23   20   25 1   
    24   21   22 2   
    25   21   29 1   
    26   23   26 1   
    27   23   27 1   
    28   23   28 1   
    29   29   30 1   
    30   29   37 1   
    31   30   31 1   
    32   30   33 1   
    33   30   38 1   
    34   31   32 2   
    35   31   41 1   
    36   33   34 1   
    37   33   39 1   
    38   33   40 1   
    39   34   35 1   
    40   34   36 1   
    41   41   42 1   
    42   41   45 1   
    43   42   43 1   
    44   42   46 1   
    45   42   47 1   
    46   43   44 2   
    47   43   48 1   
    48   48   49 1   
    49   48   56 1   
    50   49   50 1   
    51   49   52 1   
    52   49   57 1   
    53   50   51 2   
    54   50   62 1   
    55   52   53 1   
    56   52   58 1   
    57   52   59 1   
    58   53   54 1   
    59   53   55 2   
    60   54   60 1   
    61   54   61 1   
    62   62   63 1   
    63   62   66 1   
    64   63   64 1   
    65   63   67 1   
    66   63   68 1   
    67   64   65 2   
    68   64   69 1   
    69   69   70 1   
    70   69   76 1   
    71   70   71 1   
    72   70   73 1   
    73   70   77 1   
    74   71   72 2   
    75   71   83 1   
    76   73   74 1   
    77   73   75 1   
    78   73   78 1   
    79   74   80 1   
    80   74   81 1   
    81   74   82 1   
    82   75   79 1   
    83   83   84 1   
    84   83   91 1   
    85   84   85 1   
    86   84   87 1   
    87   84   92 1   
    88   85   86 2   
    89   85  102 1   
    90   87   88 1   
    91   87   89 1   
    92   87   93 1   
    93   88   90 1   
    94   88   94 1   
    95   88   95 1   
    96   89   96 1   
    97   89   97 1   
    98   89   98 1   
    99   90   99 1   
   100   90  100 1   
   101   90  101 1   
   102  102  103 1   
   103  102  110 1   
   104  103  104 1   
   105  103  106 1   
   106  103  111 1   
   107  104  105 2   
   108  104  114 1   
   109  106  107 1   
   110  106  112 1   
   111  106  113 1   
   112  107  108 1   
   113  107  109 1   
   114  114  115 1   
   115  114  125 1   
   116  115  116 1   
   117  115  118 1   
   118  115  126 1   
   119  116  117 2   
   120  116  134 1   
   121  118  119 1   
   122  118  127 1   
   123  118  128 1   
   124  119  120 ar  
   125  119  121 ar  
   126  120  122 ar  
   127  120  129 1   
   128  121  123 ar  
   129  121  130 1   
   130  122  124 ar  
   131  122  131 1   
   132  123  124 ar  
   133  123  132 1   
   134  124  133 1   
   135  134  135 1   
   136  134  140 1   
   137  135  136 1   
   138  135  138 1   
   139  135  141 1   
   140  136  137 2   
   141  136  148 1   
   142  138  139 1   
   143  138  142 1   
   144  138  143 1   
   145  139  140 1   
   146  139  144 1   
   147  139  145 1   
   148  140  146 1   
   149  140  147 1   
   150  148  149 1   
   151  148  157 1   
   152  149  150 1   
   153  149  152 1   
   154  149  158 1   
   155  150  151 2   
   156  150  163 1   
   157  152  153 1   
   158  152  159 1   
   159  152  160 1   
   160  153  154 1   
   161  153  161 1   
   162  153  162 1   
   163  154  155 1   
   164  154  156 1   
   165  163  164 1   
   166  163  168 1   
   167  164  165 1   
   168  164  166 1   
   169  164  167 1   
   170  170  171 1   
   171  170  172 1   
@<TRIPOS>SUBSTRUCTURE
     1 MOL         1 TEMP              0 ****  ****    0 ROOT
