@<TRIPOS>MOLECULE
MOL
  189   185     1     0     0
SMALL
resp


@<TRIPOS>ATOM
      1 C1         -0.3390    2.8310   -4.7020 c3        1 MOL     -0.431799
      2 C2          0.3070    2.7110   -3.2910 c         1 MOL      0.692980
      3 O1         -0.2570    3.0910   -2.2870 o         1 MOL     -0.595182
      4 H1         -1.4230    2.7670   -4.6110 hc        1 MOL      0.109517
      5 H2         -0.0680    3.7900   -5.1460 hc        1 MOL      0.109517
      6 H3          0.0220    2.0220   -5.3370 hc        1 MOL      0.109517
      7 N1          1.5110    2.2440   -3.3360 n         1 MOL     -0.548109
      8 C3          2.2380    1.7380   -2.1840 c3        1 MOL      0.294786
      9 C4          2.9050    2.9560   -1.5060 c         1 MOL      0.362239
     10 O2          4.0970    2.9990   -1.3860 o         1 MOL     -0.455443
     11 C5          3.1440    0.5680   -2.5920 c3        1 MOL     -0.254192
     12 C6          3.9920    0.0540   -1.4780 c         1 MOL      0.707475
     13 O3          3.4820   -0.0580   -0.3700 o         1 MOL     -0.685982
     14 O4          5.1010   -0.3270   -1.6820 o         1 MOL     -0.685982
     15 H4          1.7940    1.9230   -4.2550 hn        1 MOL      0.279246
     16 H5          1.5090    1.3290   -1.4870 h1        1 MOL      0.003331
     17 H6          3.7910    0.9940   -3.3600 hc        1 MOL      0.044003
     18 H7          2.4970   -0.2320   -2.9500 hc        1 MOL      0.044003
     19 N2          2.1550    3.9190   -0.9880 n         1 MOL     -0.291156
     20 C7          2.6830    5.2640   -0.5300 c3        1 MOL     -0.011828
     21 C8          3.6010    5.0290    0.7050 c         1 MOL      0.460250
     22 O5          4.5370    5.8500    0.9370 o         1 MOL     -0.545573
     23 C9          1.5670    6.3150   -0.3360 c3        1 MOL      0.005115
     24 C10         0.6820    6.8040   -1.4610 c3        1 MOL      0.088341
     25 C11         1.4850    7.0860   -2.6660 c3        1 MOL      0.003563
     26 C12         0.7230    8.1230   -3.4810 c3        1 MOL     -0.126426
     27 N3         -0.6580    7.6870   -3.8840 n4        1 MOL     -0.374205
     28 H8          1.1930    3.8590   -1.2760 hn        1 MOL      0.268027
     29 H9          3.2810    5.5900   -1.3740 h1        1 MOL      0.066570
     30 H10         2.1690    7.1610   -0.0080 hc        1 MOL      0.015975
     31 H11         1.0510    5.9740    0.5620 hc        1 MOL      0.015975
     32 H12         0.1920    7.7310   -1.1670 hc        1 MOL     -0.013131
     33 H13        -0.0190    6.0020   -1.6980 hc        1 MOL     -0.013131
     34 H14         1.7200    6.1640   -3.2040 hc        1 MOL      0.032249
     35 H15         2.4660    7.5100   -2.4330 hc        1 MOL      0.032249
     36 H16         1.2740    8.3730   -4.3970 hx        1 MOL      0.135732
     37 H17         0.8230    9.0620   -2.9330 hx        1 MOL      0.135732
     38 H18        -1.0990    8.1770   -4.6520 hn        1 MOL      0.334524
     39 H19        -0.6330    6.7650   -4.2850 hn        1 MOL      0.334524
     40 H20        -1.2800    7.6490   -3.0970 hn        1 MOL      0.334524
     41 N4          3.4430    3.8390    1.4370 n         1 MOL     -0.382680
     42 C13         4.2660    3.4650    2.6000 c3        1 MOL      0.287342
     43 C14         5.3830    2.4470    2.2240 c         1 MOL      0.186693
     44 O6          6.1140    2.0840    3.1460 o         1 MOL     -0.481038
     45 C15         3.3890    2.9770    3.7820 c3        1 MOL     -0.339230
     46 C16         2.3730    1.9300    3.4190 c         1 MOL      0.951373
     47 O7          2.6880    1.1690    2.5460 o         1 MOL     -0.798620
     48 O8          1.2040    1.9760    3.9740 o         1 MOL     -0.798620
     49 H21         2.8810    3.1090    1.0350 hn        1 MOL      0.235264
     50 H22         4.7270    4.3560    3.0340 h1        1 MOL      0.059583
     51 H23         2.8510    3.8600    4.1150 hc        1 MOL      0.057535
     52 H24         4.0150    2.5870    4.5850 hc        1 MOL      0.057535
     53 N5          5.6440    2.0930    0.9420 n         1 MOL     -0.010228
     54 C17         6.9320    1.6060    0.3840 c3        1 MOL      0.069771
     55 C18         7.3760    0.2790    1.0500 c         1 MOL      0.323087
     56 O9          8.5660    0.0830    1.2970 o         1 MOL     -0.557584
     57 H25         5.1550    2.6080    0.2170 hn        1 MOL      0.111442
     58 H26         7.6370    2.4370    0.2990 h1        1 MOL      0.023281
     59 H27         6.6410    1.3480   -0.6370 h1        1 MOL      0.023281
     60 N6          6.4390   -0.5890    1.4180 n         1 MOL     -0.124192
     61 C19         6.7190   -2.0080    1.8240 c3        1 MOL     -0.009113
     62 C20         6.7250   -2.9890    0.6530 c         1 MOL      0.486038
     63 O10         7.0240   -4.1500    0.9060 o         1 MOL     -0.544336
     64 C21         5.8000   -2.3370    2.9580 c3        1 MOL     -0.251957
     65 C22         4.2850   -2.1050    2.5160 c         1 MOL      0.658195
     66 O11         3.4980   -1.5710    3.3350 o         1 MOL     -0.687991
     67 O12         3.9990   -2.1830    1.3410 o         1 MOL     -0.687991
     68 H28         5.4750   -0.3990    1.2030 hn        1 MOL      0.273149
     69 H29         7.7580   -2.1200    2.1410 h1        1 MOL      0.106668
     70 H30         6.0850   -1.7120    3.8110 hc        1 MOL      0.076531
     71 H31         5.9600   -3.3970    3.1380 hc        1 MOL      0.076531
     72 N7          6.4630   -2.5590   -0.5780 n         1 MOL     -0.358533
     73 C23         6.4160   -3.4910   -1.7080 c3        1 MOL     -0.036795
     74 C24         5.1300   -4.3450   -1.7610 c         1 MOL      0.372307
     75 O13         5.1120   -5.5200   -2.1370 o         1 MOL     -0.511044
     76 H32         6.0480   -1.6650   -0.7820 hn        1 MOL      0.270239
     77 H33         7.2810   -4.1550   -1.6730 h1        1 MOL      0.079165
     78 H34         6.6020   -2.9410   -2.6340 h1        1 MOL      0.079165
     79 N8          4.0210   -3.8340   -1.1620 n         1 MOL     -0.145866
     80 C25         2.7880   -4.6290   -1.1110 c3        1 MOL     -0.305864
     81 C26         1.5410   -3.6780   -1.1180 c         1 MOL      0.644054
     82 O14         1.6180   -2.6370   -0.4610 o         1 MOL     -0.590721
     83 C27         2.7280   -5.4880    0.1660 c3        1 MOL      0.535749
     84 C28         3.5610   -6.8260    0.1030 c3        1 MOL     -0.651633
     85 O15         3.2360   -4.8930    1.3400 oh        1 MOL     -0.596942
     86 H35         3.9650   -2.8770   -0.8340 hn        1 MOL      0.246880
     87 H36         2.6650   -5.2770   -1.9790 h1        1 MOL      0.114903
     88 H37         1.6720   -5.7800    0.2240 h1        1 MOL     -0.028768
     89 H38         3.8220   -4.1710    1.1040 ho        1 MOL      0.401662
     90 H39         3.2390   -7.5100    0.8930 hc        1 MOL      0.161271
     91 H40         3.5320   -7.3200   -0.8660 hc        1 MOL      0.161271
     92 H41         4.6240   -6.7010    0.2710 hc        1 MOL      0.161271
     93 N9          0.5100   -3.9750   -1.9590 n         1 MOL     -0.565072
     94 C29        -0.6280   -2.9790   -2.1480 c3        1 MOL      0.020513
     95 C30        -1.8740   -3.5310   -1.4110 c         1 MOL      0.505099
     96 O16        -2.1700   -4.6440   -1.5850 o         1 MOL     -0.549772
     97 C31        -0.9770   -2.8290   -3.6640 c3        1 MOL      0.144116
     98 C32         0.0590   -2.0430   -4.3100 c3        1 MOL      0.072965
     99 C33        -2.3970   -2.1930   -3.7730 c3        1 MOL     -0.204446
    100 C34         0.1090   -1.8720   -5.7960 c3        1 MOL     -0.205366
    101 H42         0.4430   -4.7340   -2.6130 hn        1 MOL      0.320720
    102 H43        -0.3400   -1.9850   -1.8110 h1        1 MOL      0.136592
    103 H44        -1.0000   -3.8240   -4.1070 hc        1 MOL     -0.001377
    104 H45         1.0320   -2.4560   -4.0460 hc        1 MOL      0.016747
    105 H46        -0.0370   -1.0380   -3.8940 hc        1 MOL      0.016747
    106 H47        -3.1620   -2.9690   -3.6580 hc        1 MOL      0.026116
    107 H48        -2.5140   -1.4060   -3.0340 hc        1 MOL      0.026116
    108 H49        -2.6650   -1.8350   -4.7700 hc        1 MOL      0.026116
    109 H50        -0.6550   -1.2450   -6.2640 hc        1 MOL      0.041993
    110 H51         0.9750   -1.3220   -6.1620 hc        1 MOL      0.041993
    111 H52         0.1970   -2.8820   -6.2010 hc        1 MOL      0.041993
    112 N10        -2.4930   -2.7520   -0.5190 n         1 MOL     -0.154641
    113 C35        -3.7510   -3.1090    0.2000 c3        1 MOL      0.043585
    114 C36        -5.0910   -2.6340   -0.4380 c         1 MOL      0.324973
    115 O17        -5.1670   -1.7100   -1.2540 o         1 MOL     -0.360468
    116 C37        -3.8330   -2.5950    1.6360 c3        1 MOL      0.055107
    117 C38        -2.6780   -2.9940    2.5230 c3        1 MOL     -0.327356
    118 O18        -4.0500   -1.2250    1.6580 oh        1 MOL     -0.325504
    119 H53        -2.0040   -1.9160   -0.2320 hn        1 MOL      0.197226
    120 H54        -3.7820   -4.1970    0.3090 h1        1 MOL      0.065515
    121 H55        -4.6640   -3.1050    2.1320 h1        1 MOL      0.033811
    122 H56        -3.6750   -0.8760    2.4740 ho        1 MOL      0.349564
    123 H57        -2.7960   -4.0370    2.8170 hc        1 MOL      0.095133
    124 H58        -1.7060   -2.9220    2.0300 hc        1 MOL      0.095133
    125 H59        -2.6160   -2.3890    3.4290 hc        1 MOL      0.095133
    126 N11        -6.2650   -3.0980    0.0170 n         1 MOL     -0.330467
    127 C39        -7.6390   -2.6700   -0.3200 c3        1 MOL     -0.052439
    128 C40        -7.7320   -1.1720   -0.0400 c         1 MOL      0.290057
    129 O19        -8.3810   -0.4530   -0.7930 o         1 MOL     -0.499082
    130 C41        -8.8050   -3.3250    0.5390 c3        1 MOL      0.318892
    131 C42        -9.1630   -4.6890    0.0560 c3        1 MOL     -0.368672
    132 O20        -8.5500   -3.2820    1.9290 oh        1 MOL     -0.636857
    133 H60        -6.2190   -3.8310    0.7150 hn        1 MOL      0.256746
    134 H61        -7.8640   -2.8290   -1.3760 h1        1 MOL      0.142759
    135 H62        -9.6770   -2.7070    0.3450 h1        1 MOL      0.043518
    136 H63        -9.3110   -3.6520    2.3850 ho        1 MOL      0.420445
    137 H64        -9.1560   -4.7170   -1.0290 hc        1 MOL      0.101711
    138 H65        -8.5000   -5.4190    0.5220 hc        1 MOL      0.101711
    139 H66       -10.1350   -4.9630    0.4600 hc        1 MOL      0.101711
    140 N12        -7.1970   -0.6190    1.0120 n         1 MOL     -0.080711
    141 C43        -7.1670    0.8550    1.3820 c3        1 MOL     -0.193084
    142 C44        -6.3170    1.6680    0.3940 c         1 MOL      0.432099
    143 O21        -6.6780    2.7020   -0.0790 o         1 MOL     -0.503200
    144 C45        -6.5960    0.9470    2.8220 c3        1 MOL      0.056811
    145 C46        -6.4240    2.3810    3.2960 c3        1 MOL     -0.252798
    146 C47        -6.2650    2.4960    4.8100 c3        1 MOL      0.028917
    147 C48        -5.9510    3.9560    5.1190 c3        1 MOL      0.011447
    148 N13        -5.5220    4.0330    6.5210 n4        1 MOL     -0.273646
    149 H67        -6.9690   -1.2910    1.7330 hn        1 MOL      0.158142
    150 H68        -8.1790    1.2520    1.4590 h1        1 MOL      0.134173
    151 H69        -5.6970    0.3310    2.8010 hc        1 MOL      0.005845
    152 H70        -7.3220    0.4740    3.4800 hc        1 MOL      0.005845
    153 H71        -7.3370    2.8910    2.9910 hc        1 MOL      0.090321
    154 H72        -5.6590    2.9170    2.7240 hc        1 MOL      0.090321
    155 H73        -5.5420    1.7410    5.0820 hc        1 MOL      0.032824
    156 H74        -7.1470    2.1600    5.3540 hc        1 MOL      0.032824
    157 H75        -6.8300    4.5980    5.0160 hx        1 MOL      0.099935
    158 H76        -5.1980    4.3060    4.4190 hx        1 MOL      0.099935
    159 H77        -6.3390    3.8760    7.0770 hn        1 MOL      0.288971
    160 H78        -4.9210    3.2610    6.7800 hn        1 MOL      0.288971
    161 H79        -5.2040    4.9800    6.6590 hn        1 MOL      0.288971
    162 N14        -5.1340    1.0940   -0.0010 n         1 MOL      0.104216
    163 C49        -4.2310    1.7130   -0.9400 c3        1 MOL     -0.419401
    164 C50        -4.8570    1.8290   -2.3090 c         1 MOL      0.573723
    165 O22        -4.7100    2.8330   -2.9880 o         1 MOL     -0.590262
    166 C51        -2.8740    0.9570   -0.9920 c3        1 MOL      0.241755
    167 C52        -1.9290    1.3530    0.1640 c3        1 MOL     -0.158606
    168 C53        -0.5800    0.6870    0.1770 c         1 MOL      0.906644
    169 O23         0.3650    1.3550    0.6440 o         1 MOL     -0.856867
    170 O24        -0.4180   -0.4400   -0.1550 o         1 MOL     -0.856867
    171 H80        -4.8840    0.2950    0.5610 hn        1 MOL     -0.000008
    172 H81        -4.0930    2.7610   -0.6590 h1        1 MOL      0.126997
    173 H82        -2.4420    1.1270   -1.9770 hc        1 MOL     -0.023961
    174 H83        -3.1350   -0.1050   -1.0110 hc        1 MOL     -0.023961
    175 H84        -2.3340    1.1800    1.1500 hc        1 MOL     -0.000575
    176 H85        -1.8970    2.4470    0.0670 hc        1 MOL     -0.000575
    177 N15        -5.5630    0.7980   -2.8030 n         1 MOL     -0.147880
    178 C54        -6.3430    0.8280   -4.0170 c3        1 MOL     -0.315544
    179 H86        -7.3910    0.6440   -3.7800 h1        1 MOL      0.114859
    180 H87        -6.2440    1.8060   -4.4890 h1        1 MOL      0.114859
    181 H88        -5.9840    0.0570   -4.6990 h1        1 MOL      0.114859
    182 H89        -5.6220   -0.0380   -2.2420 hn        1 MOL      0.190935
    183 Ca1         1.7710   -0.8200    1.3560 Ca        1 MOL      1.814981
    184 O25         0.9460   -3.3120    2.4710 oh        1 MOL     -0.864391
    185 H90         0.3700   -3.2300    3.2370 ho        1 MOL      0.402049
    186 H91         1.3310   -4.1810    2.5610 ho        1 MOL      0.402049
    187 O26        -0.0150   -0.4190    3.2130 oh        1 MOL     -0.864391
    188 H92         0.3170    0.3710    3.6430 ho        1 MOL      0.402049
    189 H93        -0.9550   -0.2970    3.1810 ho        1 MOL      0.402049
@<TRIPOS>BOND
     1    1    2 1   
     2    1    4 1   
     3    1    5 1   
     4    1    6 1   
     5    2    3 2   
     6    2    7 1   
     7    7    8 1   
     8    7   15 1   
     9    8    9 1   
    10    8   11 1   
    11    8   16 1   
    12    9   10 2   
    13    9   19 1   
    14   11   12 1   
    15   11   17 1   
    16   11   18 1   
    17   12   13 1   
    18   12   14 1   
    19   19   20 1   
    20   19   28 1   
    21   20   21 1   
    22   20   23 1   
    23   20   29 1   
    24   21   22 2   
    25   21   41 1   
    26   23   24 1   
    27   23   30 1   
    28   23   31 1   
    29   24   25 1   
    30   24   32 1   
    31   24   33 1   
    32   25   26 1   
    33   25   34 1   
    34   25   35 1   
    35   26   27 1   
    36   26   36 1   
    37   26   37 1   
    38   27   38 1   
    39   27   39 1   
    40   27   40 1   
    41   41   42 1   
    42   41   49 1   
    43   42   43 1   
    44   42   45 1   
    45   42   50 1   
    46   43   44 2   
    47   43   53 1   
    48   45   46 1   
    49   45   51 1   
    50   45   52 1   
    51   46   47 1   
    52   46   48 1   
    53   53   54 1   
    54   53   57 1   
    55   54   55 1   
    56   54   58 1   
    57   54   59 1   
    58   55   56 2   
    59   55   60 1   
    60   60   61 1   
    61   60   68 1   
    62   61   62 1   
    63   61   64 1   
    64   61   69 1   
    65   62   63 2   
    66   62   72 1   
    67   64   65 1   
    68   64   70 1   
    69   64   71 1   
    70   65   66 1   
    71   65   67 1   
    72   72   73 1   
    73   72   76 1   
    74   73   74 1   
    75   73   77 1   
    76   73   78 1   
    77   74   75 2   
    78   74   79 1   
    79   79   80 1   
    80   79   86 1   
    81   80   81 1   
    82   80   83 1   
    83   80   87 1   
    84   81   82 2   
    85   81   93 1   
    86   83   84 1   
    87   83   85 1   
    88   83   88 1   
    89   84   90 1   
    90   84   91 1   
    91   84   92 1   
    92   85   89 1   
    93   93   94 1   
    94   93  101 1   
    95   94   95 1   
    96   94   97 1   
    97   94  102 1   
    98   95   96 2   
    99   95  112 1   
   100   97   98 1   
   101   97   99 1   
   102   97  103 1   
   103   98  100 1   
   104   98  104 1   
   105   98  105 1   
   106   99  106 1   
   107   99  107 1   
   108   99  108 1   
   109  100  109 1   
   110  100  110 1   
   111  100  111 1   
   112  112  113 1   
   113  112  119 1   
   114  113  114 1   
   115  113  116 1   
   116  113  120 1   
   117  114  115 2   
   118  114  126 1   
   119  116  117 1   
   120  116  118 1   
   121  116  121 1   
   122  117  123 1   
   123  117  124 1   
   124  117  125 1   
   125  118  122 1   
   126  126  127 1   
   127  126  133 1   
   128  127  128 1   
   129  127  130 1   
   130  127  134 1   
   131  128  129 2   
   132  128  140 1   
   133  130  131 1   
   134  130  132 1   
   135  130  135 1   
   136  131  137 1   
   137  131  138 1   
   138  131  139 1   
   139  132  136 1   
   140  140  141 1   
   141  140  149 1   
   142  141  142 1   
   143  141  144 1   
   144  141  150 1   
   145  142  143 2   
   146  142  162 1   
   147  144  145 1   
   148  144  151 1   
   149  144  152 1   
   150  145  146 1   
   151  145  153 1   
   152  145  154 1   
   153  146  147 1   
   154  146  155 1   
   155  146  156 1   
   156  147  148 1   
   157  147  157 1   
   158  147  158 1   
   159  148  159 1   
   160  148  160 1   
   161  148  161 1   
   162  162  163 1   
   163  162  171 1   
   164  163  164 1   
   165  163  166 1   
   166  163  172 1   
   167  164  165 2   
   168  164  177 1   
   169  166  167 1   
   170  166  173 1   
   171  166  174 1   
   172  167  168 1   
   173  167  175 1   
   174  167  176 1   
   175  168  169 1   
   176  168  170 1   
   177  177  178 1   
   178  177  182 1   
   179  178  179 1   
   180  178  180 1   
   181  178  181 1   
   182  184  185 1   
   183  184  186 1   
   184  187  188 1   
   185  187  189 1   
@<TRIPOS>SUBSTRUCTURE
     1 MOL         1 TEMP              0 ****  ****    0 ROOT
