@<TRIPOS>MOLECULE
MOL
  175   173     1     0     0
SMALL
resp


@<TRIPOS>ATOM
      1 C1          0.2990    3.7230    5.8070 c3        1 MOL     -0.407184
      2 C2         -0.3990    3.8950    4.3980 c         1 MOL      0.669208
      3 O1          0.3000    4.1600    3.3790 o         1 MOL     -0.563864
      4 H1          1.1770    3.0870    5.7010 hc        1 MOL      0.104250
      5 H2          0.6020    4.6990    6.1840 hc        1 MOL      0.104250
      6 H3         -0.4000    3.2630    6.5060 hc        1 MOL      0.104250
      7 N1         -1.6840    3.6480    4.2200 n         1 MOL     -0.604286
      8 C3         -2.3060    3.3570    2.8750 c3        1 MOL      0.199549
      9 C4         -2.4130    4.5910    1.9810 c         1 MOL      0.595548
     10 O2         -2.9070    5.6230    2.4420 o         1 MOL     -0.595138
     11 C5         -3.6850    2.7340    3.0960 c3        1 MOL     -0.496187
     12 C6         -4.2320    2.3110    1.7850 c         1 MOL      0.835813
     13 O3         -5.4420    2.1430    1.7910 o         1 MOL     -0.638283
     14 O4         -3.4810    1.9870    0.8120 o         1 MOL     -0.638283
     15 H4         -2.2910    3.4090    4.9910 hn        1 MOL      0.324390
     16 H5         -1.6770    2.6150    2.3830 h1        1 MOL      0.052362
     17 H6         -4.3220    3.4350    3.6380 hc        1 MOL      0.107938
     18 H7         -3.4520    1.8550    3.6990 hc        1 MOL      0.107938
     19 N2         -2.1000    4.5200    0.6920 n         1 MOL     -0.486661
     20 C7         -2.3080    5.5540   -0.2650 c3        1 MOL      0.519879
     21 C8         -3.5070    5.2990   -1.2820 c         1 MOL      0.137756
     22 O5         -3.8780    6.2010   -2.0350 o         1 MOL     -0.534171
     23 C9         -0.9870    5.7910   -0.9820 c3        1 MOL     -0.603715
     24 H8         -1.5780    3.7390    0.3090 hn        1 MOL      0.275228
     25 H9         -2.5700    6.4330    0.3280 h1        1 MOL     -0.018561
     26 H10        -0.4680    4.8390   -1.1540 hc        1 MOL      0.150567
     27 H11        -1.1670    6.2040   -1.9810 hc        1 MOL      0.150567
     28 H12        -0.3330    6.3450   -0.3120 hc        1 MOL      0.150567
     29 N3         -3.8260    4.0310   -1.5180 n         1 MOL      0.009932
     30 C10        -4.7070    3.5330   -2.6510 c3        1 MOL      0.189352
     31 C11        -5.9290    2.6020   -2.2930 c         1 MOL      0.147638
     32 O6         -6.7270    2.2190   -3.1820 o         1 MOL     -0.536598
     33 C12        -3.8860    2.6790   -3.6600 c3        1 MOL     -0.304820
     34 C13        -2.8790    1.7960   -2.9780 c         1 MOL      0.792965
     35 O7         -1.6830    1.9870   -3.1440 o         1 MOL     -0.714083
     36 O8         -3.2640    0.9470   -2.1650 o         1 MOL     -0.714083
     37 H13        -3.4650    3.3130   -0.9150 hn        1 MOL      0.103357
     38 H14        -5.0820    4.3890   -3.2030 h1        1 MOL      0.074184
     39 H15        -3.4050    3.4450   -4.2700 hc        1 MOL      0.059222
     40 H16        -4.4990    1.9830   -4.2330 hc        1 MOL      0.059222
     41 N4         -6.0920    2.1550   -1.1060 n         1 MOL      0.079592
     42 C14        -7.2740    1.3600   -0.7510 c3        1 MOL     -0.202788
     43 C15        -7.2800   -0.0710   -1.1920 c         1 MOL      0.564836
     44 O9         -8.2090   -0.7810   -0.9470 o         1 MOL     -0.634160
     45 H17        -5.4220    2.3730   -0.3770 hn        1 MOL     -0.040699
     46 H18        -8.1700    1.8350   -1.1310 h1        1 MOL      0.100433
     47 H19        -7.3760    1.2460    0.3310 h1        1 MOL      0.100433
     48 N5         -6.2900   -0.5400   -1.8730 n         1 MOL     -0.188624
     49 C16        -6.0870   -1.8640   -2.4010 c3        1 MOL     -0.035471
     50 C17        -6.2760   -3.0380   -1.3620 c         1 MOL      0.497277
     51 O10        -6.4500   -4.1880   -1.6990 o         1 MOL     -0.562449
     52 C18        -4.8140   -2.0140   -3.2250 c3        1 MOL     -0.050774
     53 C19        -3.4700   -2.0440   -2.4890 c         1 MOL      0.499290
     54 N6         -2.4930   -2.2840   -3.3500 n         1 MOL     -0.583593
     55 O11        -3.3520   -1.9400   -1.3050 o         1 MOL     -0.487886
     56 H20        -5.5070    0.0840   -1.9650 hn        1 MOL      0.162035
     57 H21        -6.9730   -2.0460   -3.0120 h1        1 MOL      0.062056
     58 H22        -4.7240   -1.2700   -4.0140 hc        1 MOL      0.031810
     59 H23        -5.0230   -2.9230   -3.7800 hc        1 MOL      0.031810
     60 H24        -2.7440   -2.4470   -4.3130 hn        1 MOL      0.307703
     61 H25        -1.5460   -2.1930   -3.0240 hn        1 MOL      0.307703
     62 N7         -6.1340   -2.7320   -0.0690 n         1 MOL     -0.148764
     63 C20        -6.2840   -3.6270    1.0860 c3        1 MOL     -0.184678
     64 C21        -5.0110   -4.3880    1.4960 c         1 MOL      0.478766
     65 O12        -5.2120   -5.4040    2.1840 o         1 MOL     -0.573688
     66 H26        -6.0340   -1.7540    0.1630 hn        1 MOL      0.178709
     67 H27        -7.0630   -4.3340    0.7870 h1        1 MOL      0.101754
     68 H28        -6.7580   -3.1000    1.9070 h1        1 MOL      0.101754
     69 N8         -3.7910   -3.9810    1.1080 n         1 MOL     -0.064967
     70 C22        -2.4850   -4.6740    1.4140 c3        1 MOL     -0.342904
     71 C23        -1.3770   -3.6770    1.5170 c         1 MOL      0.668290
     72 O13        -1.6170   -2.6100    0.9540 o         1 MOL     -0.500682
     73 C24        -2.0740   -5.5730    0.2480 c3        1 MOL      0.600091
     74 C25        -2.9440   -6.7940    0.1670 c3        1 MOL     -0.420264
     75 O14        -2.2480   -4.9180   -1.0120 oh        1 MOL     -0.603357
     76 H29        -3.6790   -3.0810    0.6670 hn        1 MOL      0.010507
     77 H30        -2.5700   -5.2610    2.3340 h1        1 MOL      0.113049
     78 H31        -1.0710   -5.9900    0.3690 h1        1 MOL     -0.053490
     79 H32        -2.0560   -4.0030   -0.7870 ho        1 MOL      0.353057
     80 H33        -2.8940   -7.3100    1.1260 hc        1 MOL      0.100745
     81 H34        -3.8990   -6.3040    0.0130 hc        1 MOL      0.100745
     82 H35        -2.7160   -7.5130   -0.6240 hc        1 MOL      0.100745
     83 N9         -0.2200   -3.9730    2.0860 n         1 MOL     -0.723424
     84 C26         0.9550   -3.0890    1.9720 c3        1 MOL      0.099934
     85 C27         1.5830   -3.1880    0.5680 c         1 MOL      0.406107
     86 O15         1.8190   -4.3010    0.0470 o         1 MOL     -0.534843
     87 C28         2.0890   -3.3740    3.0550 c3        1 MOL      0.246154
     88 C29         1.5400   -3.5860    4.4630 c3        1 MOL      0.105591
     89 C30         3.1810   -2.2970    2.9280 c3        1 MOL     -0.046802
     90 C31         2.5090   -4.1040    5.4490 c3        1 MOL     -0.189367
     91 H36        -0.1260   -4.9060    2.4600 hn        1 MOL      0.361336
     92 H37         0.6030   -2.0820    2.1710 h1        1 MOL      0.046455
     93 H38         2.5590   -4.3140    2.7870 hc        1 MOL     -0.051341
     94 H39         0.7530   -4.3430    4.4360 hc        1 MOL     -0.039486
     95 H40         1.1400   -2.6070    4.7260 hc        1 MOL     -0.039486
     96 H41         2.7850   -1.2810    2.9290 hc        1 MOL     -0.027064
     97 H42         3.9750   -2.4090    3.6670 hc        1 MOL     -0.027064
     98 H43         3.6930   -2.4320    1.9740 hc        1 MOL     -0.027064
     99 H44         3.2760   -3.3530    5.6190 hc        1 MOL      0.039171
    100 H45         2.0990   -4.2110    6.4550 hc        1 MOL      0.039171
    101 H46         2.9090   -5.0560    5.0860 hc        1 MOL      0.039171
    102 N10         1.7350   -1.9860   -0.0160 n         1 MOL     -0.209049
    103 C32         2.6150   -1.7990   -1.1700 c3        1 MOL      0.181315
    104 C33         4.0200   -1.3070   -0.9510 c         1 MOL      0.223766
    105 O16         4.1990   -0.5690    0.0480 o         1 MOL     -0.019557
    106 C34         1.8410   -1.0230   -2.2520 c3        1 MOL     -0.372885
    107 C35         0.4030   -1.5070   -2.5380 c         1 MOL      0.795611
    108 O17         0.2260   -2.3970   -3.4170 o         1 MOL     -0.688573
    109 O18        -0.5610   -1.0110   -1.9090 o         1 MOL     -0.688573
    110 H47         1.3580   -1.0880    0.2650 hn        1 MOL      0.151238
    111 H48         2.7430   -2.7550   -1.6820 h1        1 MOL      0.033780
    112 H49         2.3800   -1.0190   -3.1980 hc        1 MOL      0.095806
    113 H50         1.7240    0.0280   -1.9510 hc        1 MOL      0.095806
    114 N11         5.0210   -1.6400   -1.7230 n         1 MOL     -0.556906
    115 C36         6.4010   -1.3100   -1.4930 c3        1 MOL      0.299078
    116 C37         6.6760    0.2160   -1.1940 c         1 MOL      0.370387
    117 O19         7.3880    0.4710   -0.2570 o         1 MOL     -0.489180
    118 C38         7.1950   -1.9000   -2.6100 c3        1 MOL     -0.199507
    119 C39         8.6460   -1.6350   -2.3640 ca        1 MOL      0.042898
    120 C40         9.3220   -0.6640   -3.1310 ca        1 MOL     -0.128471
    121 C41         9.3350   -2.2400   -1.3160 ca        1 MOL     -0.128471
    122 C42        10.6820   -0.3340   -2.8780 ca        1 MOL     -0.113508
    123 C43        10.6630   -1.9830   -1.1010 ca        1 MOL     -0.113508
    124 C44        11.3590   -0.9580   -1.8190 ca        1 MOL     -0.138933
    125 H51         4.8800   -2.2520   -2.5250 hn        1 MOL      0.331310
    126 H52         6.6290   -1.7970   -0.5480 h1        1 MOL      0.057222
    127 H53         6.8580   -1.4850   -3.5560 hc        1 MOL      0.071289
    128 H54         7.0540   -2.9750   -2.7190 hc        1 MOL      0.071289
    129 H55         8.8550   -0.2310   -4.0060 ha        1 MOL      0.106974
    130 H56         8.9600   -3.1050   -0.7840 ha        1 MOL      0.106974
    131 H57        11.2550    0.3460   -3.4960 ha        1 MOL      0.108034
    132 H58        11.1470   -2.4290   -0.2470 ha        1 MOL      0.108034
    133 H59        12.3100   -0.6520   -1.4130 ha        1 MOL      0.122514
    134 N12         6.0250    1.2190   -1.7540 n         1 MOL     -0.065652
    135 C45         6.2760    2.6810   -1.3220 c3        1 MOL      0.069118
    136 C46         5.7190    2.8860    0.1170 c         1 MOL      0.304498
    137 O20         6.2170    3.7510    0.8290 o         1 MOL     -0.516349
    138 C47         5.5330    3.5300   -2.3760 c3        1 MOL     -0.123648
    139 C48         5.5730    2.6630   -3.6640 c3        1 MOL      0.187755
    140 C49         5.3440    1.3150   -3.0430 c3        1 MOL     -0.217971
    141 H60         7.3310    2.9380   -1.3760 h1        1 MOL      0.067452
    142 H61         4.4820    3.6310   -2.1120 hc        1 MOL      0.056521
    143 H62         6.0710    4.4590   -2.5900 hc        1 MOL      0.056521
    144 H63         4.8680    3.0290   -4.4100 hc        1 MOL     -0.021502
    145 H64         6.5490    2.6680   -4.1530 hc        1 MOL     -0.021502
    146 H65         4.2640    1.1910   -2.9570 h1        1 MOL      0.073422
    147 H66         5.7740    0.5760   -3.7200 h1        1 MOL      0.073422
    148 N13         4.6950    2.1500    0.5600 n         1 MOL     -0.101138
    149 C50         4.0710    2.2170    1.9440 c3        1 MOL     -0.018054
    150 C51         4.9450    1.3550    2.8270 c         1 MOL      0.436586
    151 O21         5.1140    1.6580    4.0170 o         1 MOL     -0.582117
    152 C52         2.7750    1.5490    1.8870 c3        1 MOL     -0.036866
    153 C53         1.7440    2.1910    0.9560 c3        1 MOL     -0.301997
    154 C54         0.4000    1.4770    0.8430 c         1 MOL      0.699053
    155 O22        -0.4490    1.9810    0.1080 o         1 MOL     -0.696203
    156 O23         0.1900    0.2870    1.2110 o         1 MOL     -0.696203
    157 H67         4.5470    1.2820    0.0600 hn        1 MOL     -0.010783
    158 H68         4.1280    3.2210    2.3710 h1        1 MOL      0.115636
    159 H69         2.3180    1.6110    2.8770 hc        1 MOL      0.052856
    160 H70         2.8870    0.5070    1.5870 hc        1 MOL      0.052856
    161 H71         2.1870    2.1340   -0.0420 hc        1 MOL      0.106795
    162 H72         1.4820    3.2240    1.1680 hc        1 MOL      0.106795
    163 N14         5.5210    0.2180    2.3900 n         1 MOL      0.059929
    164 C55         6.4380   -0.5700    3.1790 c3        1 MOL     -0.243994
    165 H73         7.0260   -1.2100    2.5210 h1        1 MOL      0.082489
    166 H74         7.1050    0.0920    3.7320 h1        1 MOL      0.082489
    167 H75         5.8770   -1.1880    3.8790 h1        1 MOL      0.082489
    168 H76         5.3060   -0.0510    1.4340 hn        1 MOL     -0.059969
    169 Ca1        -2.1760   -0.0450   -0.0650 Ca        1 MOL      1.623957
    170 O24        -2.0010   -0.2610    2.6500 oh        1 MOL     -0.750767
    171 H77        -1.0420   -0.3570    2.6940 ho        1 MOL      0.369382
    172 H78        -2.2890   -0.3770    3.5460 ho        1 MOL      0.369382
    173 O25        -4.7160   -0.5600    1.2420 oh        1 MOL     -0.750767
    174 H79        -4.9110    0.3640    1.3980 ho        1 MOL      0.369382
    175 H80        -4.8480   -0.9870    2.0950 ho        1 MOL      0.369382
@<TRIPOS>BOND
     1    1    2 1   
     2    1    4 1   
     3    1    5 1   
     4    1    6 1   
     5    2    3 2   
     6    2    7 1   
     7    7    8 1   
     8    7   15 1   
     9    8    9 1   
    10    8   11 1   
    11    8   16 1   
    12    9   10 2   
    13    9   19 1   
    14   11   12 1   
    15   11   17 1   
    16   11   18 1   
    17   12   13 1   
    18   12   14 1   
    19   19   20 1   
    20   19   24 1   
    21   20   21 1   
    22   20   23 1   
    23   20   25 1   
    24   21   22 2   
    25   21   29 1   
    26   23   26 1   
    27   23   27 1   
    28   23   28 1   
    29   29   30 1   
    30   29   37 1   
    31   30   31 1   
    32   30   33 1   
    33   30   38 1   
    34   31   32 2   
    35   31   41 1   
    36   33   34 1   
    37   33   39 1   
    38   33   40 1   
    39   34   35 1   
    40   34   36 1   
    41   41   42 1   
    42   41   45 1   
    43   42   43 1   
    44   42   46 1   
    45   42   47 1   
    46   43   44 2   
    47   43   48 1   
    48   48   49 1   
    49   48   56 1   
    50   49   50 1   
    51   49   52 1   
    52   49   57 1   
    53   50   51 2   
    54   50   62 1   
    55   52   53 1   
    56   52   58 1   
    57   52   59 1   
    58   53   54 1   
    59   53   55 2   
    60   54   60 1   
    61   54   61 1   
    62   62   63 1   
    63   62   66 1   
    64   63   64 1   
    65   63   67 1   
    66   63   68 1   
    67   64   65 2   
    68   64   69 1   
    69   69   70 1   
    70   69   76 1   
    71   70   71 1   
    72   70   73 1   
    73   70   77 1   
    74   71   72 2   
    75   71   83 1   
    76   73   74 1   
    77   73   75 1   
    78   73   78 1   
    79   74   80 1   
    80   74   81 1   
    81   74   82 1   
    82   75   79 1   
    83   83   84 1   
    84   83   91 1   
    85   84   85 1   
    86   84   87 1   
    87   84   92 1   
    88   85   86 2   
    89   85  102 1   
    90   87   88 1   
    91   87   89 1   
    92   87   93 1   
    93   88   90 1   
    94   88   94 1   
    95   88   95 1   
    96   89   96 1   
    97   89   97 1   
    98   89   98 1   
    99   90   99 1   
   100   90  100 1   
   101   90  101 1   
   102  102  103 1   
   103  102  110 1   
   104  103  104 1   
   105  103  106 1   
   106  103  111 1   
   107  104  105 2   
   108  104  114 1   
   109  106  107 1   
   110  106  112 1   
   111  106  113 1   
   112  107  108 1   
   113  107  109 1   
   114  114  115 1   
   115  114  125 1   
   116  115  116 1   
   117  115  118 1   
   118  115  126 1   
   119  116  117 2   
   120  116  134 1   
   121  118  119 1   
   122  118  127 1   
   123  118  128 1   
   124  119  120 ar  
   125  119  121 ar  
   126  120  122 ar  
   127  120  129 1   
   128  121  123 ar  
   129  121  130 1   
   130  122  124 ar  
   131  122  131 1   
   132  123  124 ar  
   133  123  132 1   
   134  124  133 1   
   135  134  135 1   
   136  134  140 1   
   137  135  136 1   
   138  135  138 1   
   139  135  141 1   
   140  136  137 2   
   141  136  148 1   
   142  138  139 1   
   143  138  142 1   
   144  138  143 1   
   145  139  140 1   
   146  139  144 1   
   147  139  145 1   
   148  140  146 1   
   149  140  147 1   
   150  148  149 1   
   151  148  157 1   
   152  149  150 1   
   153  149  152 1   
   154  149  158 1   
   155  150  151 2   
   156  150  163 1   
   157  152  153 1   
   158  152  159 1   
   159  152  160 1   
   160  153  154 1   
   161  153  161 1   
   162  153  162 1   
   163  154  155 1   
   164  154  156 1   
   165  163  164 1   
   166  163  168 1   
   167  164  165 1   
   168  164  166 1   
   169  164  167 1   
   170  170  171 1   
   171  170  172 1   
   172  173  174 1   
   173  173  175 1   
@<TRIPOS>SUBSTRUCTURE
     1 MOL         1 TEMP              0 ****  ****    0 ROOT
