@<TRIPOS>MOLECULE
MOL
  179   176     1     0     0
SMALL
resp


@<TRIPOS>ATOM
      1 C1          2.2420    1.1550    5.8740 c3        1 MOL     -0.432850
      2 C2          1.7020    1.3190    4.4030 c         1 MOL      0.730889
      3 O1          2.3470    1.1480    3.3580 o         1 MOL     -0.618154
      4 H1          2.3330    0.0940    6.1110 hc        1 MOL      0.123769
      5 H2          3.2190    1.6310    5.9580 hc        1 MOL      0.123769
      6 H3          1.5480    1.6240    6.5710 hc        1 MOL      0.123769
      7 N1          0.4220    1.7430    4.2210 n         1 MOL     -0.597790
      8 C3         -0.2540    2.0390    2.9020 c3        1 MOL      0.098622
      9 C4          0.0370    3.5050    2.4620 c         1 MOL      0.495256
     10 O2         -0.5840    4.4720    2.9780 o         1 MOL     -0.542815
     11 C5         -1.7480    1.7530    3.0900 c3        1 MOL     -0.218609
     12 C6         -2.6280    1.9560    1.8640 c         1 MOL      0.616143
     13 O3         -3.8550    1.8820    1.9690 o         1 MOL     -0.609487
     14 O4         -2.0800    2.0390    0.7400 o         1 MOL     -0.609487
     15 H4         -0.1800    1.8450    5.0230 hn        1 MOL      0.321997
     16 H5          0.1050    1.3730    2.1200 h1        1 MOL      0.108129
     17 H6         -2.1520    2.2790    3.9560 hc        1 MOL      0.066039
     18 H7         -1.8520    0.7070    3.3600 hc        1 MOL      0.066039
     19 N2          0.9320    3.7150    1.5130 n         1 MOL     -0.361475
     20 C7          1.3510    5.0260    0.9650 c3        1 MOL     -0.001697
     21 C8          0.4260    5.5000   -0.0960 c         1 MOL      0.449367
     22 O5          0.3210    6.6830   -0.3190 o         1 MOL     -0.557238
     23 C9          2.8310    4.8920    0.4110 c3        1 MOL      0.134365
     24 C10         3.5090    6.2980    0.2830 c3        1 MOL     -0.027360
     25 C11         4.5920    6.3320   -0.8370 c3        1 MOL     -0.028443
     26 C12         5.7630    5.4630   -0.4540 c3        1 MOL     -0.020384
     27 N3          7.0240    5.8640   -1.1470 n4        1 MOL     -0.320381
     28 H8          1.3060    2.8440    1.1620 hn        1 MOL      0.276652
     29 H9          1.3060    5.7810    1.7480 h1        1 MOL      0.079638
     30 H10         2.8150    4.4900   -0.6010 hc        1 MOL     -0.010418
     31 H11         3.3560    4.2470    1.1200 hc        1 MOL     -0.010418
     32 H12         4.0470    6.4470    1.2180 hc        1 MOL      0.021082
     33 H13         2.8490    7.1470    0.0820 hc        1 MOL      0.021082
     34 H14         5.0110    7.3340   -0.9420 hc        1 MOL      0.036919
     35 H15         4.1030    6.0930   -1.7860 hc        1 MOL      0.036919
     36 H16         5.5170    4.4340   -0.6850 hx        1 MOL      0.107462
     37 H17         5.9660    5.4140    0.6220 hx        1 MOL      0.107462
     38 H18         7.8560    5.3790   -0.8500 hn        1 MOL      0.315028
     39 H19         7.0200    5.7350   -2.1520 hn        1 MOL      0.315028
     40 H20         7.2430    6.8330   -1.0190 hn        1 MOL      0.315028
     41 N4         -0.1510    4.6080   -0.8780 n         1 MOL     -0.180582
     42 C13        -1.0360    5.1480   -1.9780 c3        1 MOL      0.031212
     43 C14        -2.5650    5.1330   -1.5280 c         1 MOL      0.388039
     44 O6         -3.4120    5.8180   -2.0880 o         1 MOL     -0.565982
     45 C15        -0.8390    4.5370   -3.3320 c3        1 MOL     -0.144103
     46 C16        -0.9500    3.0080   -3.3500 c         1 MOL      0.754721
     47 O7         -0.3500    2.3270   -4.2640 o         1 MOL     -0.707564
     48 O8         -1.7740    2.3510   -2.5780 o         1 MOL     -0.707564
     49 H21         0.0500    3.6260   -0.8560 hn        1 MOL      0.079016
     50 H22        -0.8230    6.2070   -2.1540 h1        1 MOL      0.111605
     51 H23         0.1770    4.8160   -3.5980 hc        1 MOL      0.040303
     52 H24        -1.3440    5.0430   -4.1490 hc        1 MOL      0.040303
     53 N5         -2.8730    4.5100   -0.4510 n         1 MOL     -0.062336
     54 C17        -4.1550    4.7550    0.2910 c3        1 MOL     -0.344258
     55 C18        -5.2810    3.8510   -0.0860 c         1 MOL      0.600963
     56 O9         -6.4610    4.1570    0.1870 o         1 MOL     -0.590017
     57 H25        -2.2910    3.8200    0.0070 hn        1 MOL      0.142709
     58 H26        -4.3230    5.8320    0.2010 h1        1 MOL      0.152853
     59 H27        -3.9090    4.6160    1.3410 h1        1 MOL      0.152853
     60 N6         -4.9650    2.7320   -0.7080 n         1 MOL     -0.128241
     61 C19        -5.9710    1.8450   -1.2680 c3        1 MOL     -0.158240
     62 C20        -6.4950    0.7320   -0.3870 c         1 MOL      0.250113
     63 O10        -7.2290   -0.1370   -0.8740 o         1 MOL     -0.410089
     64 C21        -5.3300    1.2550   -2.5810 c3        1 MOL     -0.097156
     65 C22        -4.5510    0.0210   -2.3070 c         1 MOL      0.388799
     66 N7         -4.8510   -1.1590   -2.8630 n         1 MOL     -0.479000
     67 O11        -3.6720   -0.0580   -1.3970 o         1 MOL     -0.468816
     68 H28        -3.9780    2.5770   -0.8390 hn        1 MOL      0.101362
     69 H29        -6.9070    2.3590   -1.4960 h1        1 MOL      0.162751
     70 H30        -4.6660    1.9750   -3.0410 hc        1 MOL      0.081617
     71 H31        -6.0520    0.9680   -3.3440 hc        1 MOL      0.081617
     72 H32        -5.5420   -1.1600   -3.5970 hn        1 MOL      0.282864
     73 H33        -4.1110   -1.8370   -2.9330 hn        1 MOL      0.282864
     74 N8         -6.0640    0.6580    0.8670 n         1 MOL     -0.046845
     75 C23        -6.5590   -0.2440    1.9070 c3        1 MOL      0.000122
     76 C24        -5.8070   -1.6020    2.0330 c         1 MOL      0.383809
     77 O12        -6.3910   -2.7190    2.1800 o         1 MOL     -0.459820
     78 H34        -5.4580    1.4090    1.1840 hn        1 MOL      0.167421
     79 H35        -7.6330   -0.4020    1.8800 h1        1 MOL      0.048259
     80 H36        -6.3770    0.2720    2.8530 h1        1 MOL      0.048259
     81 N9         -4.5340   -1.4880    1.6160 n         1 MOL     -0.474074
     82 C25        -3.6440   -2.6400    1.2150 c3        1 MOL      0.412037
     83 C26        -2.1930   -2.2680    1.2460 c         1 MOL      0.334110
     84 O13        -1.8860   -1.0350    1.0940 o         1 MOL     -0.615284
     85 C27        -4.0110   -3.3660   -0.0480 c3        1 MOL     -0.018466
     86 C28        -5.3830   -4.1210   -0.2240 ca        1 MOL      0.083257
     87 C29        -6.4200   -3.4780   -0.8990 ca        1 MOL     -0.314128
     88 C30        -5.4460   -5.4470    0.1550 ca        1 MOL     -0.314128
     89 C31        -7.6390   -4.1270   -1.1340 ca        1 MOL     -0.041352
     90 C32        -6.5890   -6.1790   -0.2360 ca        1 MOL     -0.041352
     91 C33        -7.6930   -5.5280   -0.8690 ca        1 MOL      0.150615
     92 O14        -8.7650   -6.2670   -1.2650 oh        1 MOL     -0.444697
     93 H37        -4.1420   -0.5690    1.4410 hn        1 MOL      0.298535
     94 H38        -3.7810   -3.3940    1.9930 h1        1 MOL     -0.029151
     95 H39        -3.2060   -4.0420   -0.3360 hc        1 MOL      0.013315
     96 H40        -3.8920   -2.7230   -0.9160 hc        1 MOL      0.013315
     97 H41        -6.3720   -2.4770   -1.2980 ha        1 MOL      0.150297
     98 H42        -4.7390   -5.9780    0.7740 ha        1 MOL      0.150297
     99 H43        -8.4570   -3.6890   -1.6840 ha        1 MOL      0.088656
    100 H44        -6.5770   -7.2650   -0.1280 ha        1 MOL      0.088656
    101 H45        -8.6470   -7.2200   -1.3200 ho        1 MOL      0.336584
    102 N10        -1.2660   -3.1630    1.5740 n         1 MOL     -0.338290
    103 C34         0.1740   -2.8970    1.4940 c3        1 MOL      0.086750
    104 C35         0.9120   -3.7560    0.4440 c         1 MOL      0.320240
    105 O15         0.7580   -4.9460    0.4430 o         1 MOL     -0.529902
    106 C36         0.9260   -3.0950    2.8810 c3        1 MOL      0.237501
    107 C37         0.1020   -2.3850    4.0220 c3        1 MOL      0.094357
    108 C38         2.3280   -2.4660    2.8710 c3        1 MOL     -0.485518
    109 C39         0.5020   -2.9750    5.3910 c3        1 MOL     -0.239512
    110 H46        -1.6060   -4.0370    1.9510 hn        1 MOL      0.252538
    111 H47         0.3050   -1.8680    1.1390 h1        1 MOL      0.010282
    112 H48         0.9480   -4.1680    3.0710 hc        1 MOL     -0.025521
    113 H49        -0.9700   -2.5320    3.9300 hc        1 MOL     -0.000027
    114 H50         0.3570   -1.3230    3.9830 hc        1 MOL     -0.000027
    115 H51         2.8120   -2.7190    3.8180 hc        1 MOL      0.101044
    116 H52         3.0560   -2.8380    2.1500 hc        1 MOL      0.101044
    117 H53         2.2470   -1.3780    2.8630 hc        1 MOL      0.101044
    118 H54         0.0620   -2.3940    6.2100 hc        1 MOL      0.051893
    119 H55         0.1280   -3.9920    5.4730 hc        1 MOL      0.051893
    120 H56         1.5750   -2.8970    5.5570 hc        1 MOL      0.051893
    121 N11         1.7380   -3.1630   -0.4460 n         1 MOL     -0.016660
    122 C40         2.4680   -3.9880   -1.3730 c3        1 MOL      0.049995
    123 C41         3.9790   -4.1290   -0.8840 c         1 MOL      0.287285
    124 O16         4.4320   -3.4350    0.0890 o         1 MOL     -0.308017
    125 C42         2.4750   -3.3210   -2.7740 c3        1 MOL      0.125952
    126 O17         1.2000   -2.7420   -3.1160 oh        1 MOL     -0.638698
    127 H57         1.7760   -2.1610   -0.6000 hn        1 MOL      0.281723
    128 H58         2.0150   -4.9760   -1.4670 h1        1 MOL      0.054612
    129 H59         2.7940   -4.0360   -3.5410 h1        1 MOL      0.017197
    130 H60         3.2550   -2.5670   -2.6980 h1        1 MOL      0.017197
    131 H61         0.9870   -3.0160   -4.0150 ho        1 MOL      0.431389
    132 N12         4.7770   -4.9540   -1.5920 n         1 MOL     -0.441920
    133 C43         6.2580   -5.0460   -1.2640 c3        1 MOL      0.275078
    134 C44         6.9470   -3.6980   -1.3950 c         1 MOL      0.437354
    135 O18         7.6760   -3.2820   -0.5060 o         1 MOL     -0.495563
    136 C45         6.9740   -6.1190   -2.0240 c3        1 MOL     -0.483818
    137 H62         4.4510   -5.3500   -2.4670 hn        1 MOL      0.296907
    138 H63         6.3250   -5.2940   -0.2060 h1        1 MOL      0.064034
    139 H64         6.6430   -6.0890   -3.0650 hc        1 MOL      0.141485
    140 H65         8.0520   -5.9710   -1.9190 hc        1 MOL      0.141485
    141 H66         6.6700   -7.1000   -1.6610 hc        1 MOL      0.141485
    142 N13         6.6650   -2.9250   -2.4900 n         1 MOL     -0.457678
    143 C46         7.0180   -1.5050   -2.6570 c3        1 MOL      0.297285
    144 C47         6.7610   -0.6150   -1.4510 c         1 MOL      0.320221
    145 O19         7.6220    0.2030   -1.2200 o         1 MOL     -0.526316
    146 C48         6.1960   -0.9270   -3.7920 c3        1 MOL     -0.461440
    147 H67         6.0260   -3.3850   -3.1300 hn        1 MOL      0.223911
    148 H68         8.0730   -1.4250   -2.9040 h1        1 MOL      0.051195
    149 H69         6.4980    0.0900   -4.0200 hc        1 MOL      0.121162
    150 H70         6.4370   -1.5840   -4.6400 hc        1 MOL      0.121162
    151 H71         5.1360   -0.9430   -3.5370 hc        1 MOL      0.121162
    152 N14         5.7310   -0.9260   -0.6820 n         1 MOL      0.081107
    153 C49         5.3990   -0.0580    0.5090 c3        1 MOL     -0.216575
    154 C50         6.0330   -0.5240    1.8800 c         1 MOL      0.490261
    155 O20         6.3770    0.3300    2.6960 o         1 MOL     -0.550870
    156 C51         3.8900    0.0990    0.5670 c3        1 MOL      0.060491
    157 C52         3.2450    0.7680   -0.6870 c3        1 MOL     -0.149477
    158 C53         1.7520    0.7580   -0.5740 c         1 MOL      0.562823
    159 O21         1.0030    1.7840   -0.4570 o         1 MOL     -0.697417
    160 O22         1.1820   -0.3870   -0.5450 o         1 MOL     -0.697417
    161 H72         5.1540   -1.7540   -0.7490 hn        1 MOL     -0.025978
    162 H73         5.8300    0.9210    0.3020 h1        1 MOL      0.069377
    163 H74         3.6590    0.6820    1.4610 hc        1 MOL      0.075640
    164 H75         3.5440   -0.9040    0.7930 hc        1 MOL      0.075640
    165 H76         3.4940    0.2780   -1.6260 hc        1 MOL      0.030321
    166 H77         3.5250    1.8190   -0.7690 hc        1 MOL      0.030321
    167 N15         6.1400   -1.8120    2.0420 n         1 MOL     -0.062436
    168 C54         6.8710   -2.4070    3.1520 c3        1 MOL     -0.309140
    169 H78         6.3610   -3.3140    3.4780 h1        1 MOL      0.118579
    170 H79         7.8820   -2.6570    2.8300 h1        1 MOL      0.118579
    171 H80         6.9170   -1.6990    3.9790 h1        1 MOL      0.118579
    172 H81         5.6810   -2.4010    1.3620 hn        1 MOL      0.116985
    173 Ca1        -1.1370    0.4350   -1.0250 Ca        1 MOL      1.680169
    174 O23        -1.3470   -2.1570   -1.6750 oh        1 MOL     -0.866847
    175 H82        -1.8460   -2.8730   -2.0660 ho        1 MOL      0.402245
    176 H83        -0.4460   -2.3070   -1.9610 ho        1 MOL      0.402245
    177 O24        -0.5200   -0.2760   -3.5560 oh        1 MOL     -0.866847
    178 H84        -0.4890    0.5210   -4.0730 ho        1 MOL      0.402245
    179 H85         0.3200   -0.6940   -3.6880 ho        1 MOL      0.402245
@<TRIPOS>BOND
     1    1    2 1   
     2    1    4 1   
     3    1    5 1   
     4    1    6 1   
     5    2    3 2   
     6    2    7 1   
     7    7    8 1   
     8    7   15 1   
     9    8    9 1   
    10    8   11 1   
    11    8   16 1   
    12    9   10 2   
    13    9   19 1   
    14   11   12 1   
    15   11   17 1   
    16   11   18 1   
    17   12   13 1   
    18   12   14 1   
    19   19   20 1   
    20   19   28 1   
    21   20   21 1   
    22   20   23 1   
    23   20   29 1   
    24   21   22 2   
    25   21   41 1   
    26   23   24 1   
    27   23   30 1   
    28   23   31 1   
    29   24   25 1   
    30   24   32 1   
    31   24   33 1   
    32   25   26 1   
    33   25   34 1   
    34   25   35 1   
    35   26   27 1   
    36   26   36 1   
    37   26   37 1   
    38   27   38 1   
    39   27   39 1   
    40   27   40 1   
    41   41   42 1   
    42   41   49 1   
    43   42   43 1   
    44   42   45 1   
    45   42   50 1   
    46   43   44 2   
    47   43   53 1   
    48   45   46 1   
    49   45   51 1   
    50   45   52 1   
    51   46   47 1   
    52   46   48 1   
    53   53   54 1   
    54   53   57 1   
    55   54   55 1   
    56   54   58 1   
    57   54   59 1   
    58   55   56 2   
    59   55   60 1   
    60   60   61 1   
    61   60   68 1   
    62   61   62 1   
    63   61   64 1   
    64   61   69 1   
    65   62   63 2   
    66   62   74 1   
    67   64   65 1   
    68   64   70 1   
    69   64   71 1   
    70   65   66 1   
    71   65   67 2   
    72   66   72 1   
    73   66   73 1   
    74   74   75 1   
    75   74   78 1   
    76   75   76 1   
    77   75   79 1   
    78   75   80 1   
    79   76   77 2   
    80   76   81 1   
    81   81   82 1   
    82   81   93 1   
    83   82   83 1   
    84   82   85 1   
    85   82   94 1   
    86   83   84 2   
    87   83  102 1   
    88   85   86 1   
    89   85   95 1   
    90   85   96 1   
    91   86   87 ar  
    92   86   88 ar  
    93   87   89 ar  
    94   87   97 1   
    95   88   90 ar  
    96   88   98 1   
    97   89   91 ar  
    98   89   99 1   
    99   90   91 ar  
   100   90  100 1   
   101   91   92 1   
   102   92  101 1   
   103  102  103 1   
   104  102  110 1   
   105  103  104 1   
   106  103  106 1   
   107  103  111 1   
   108  104  105 2   
   109  104  121 1   
   110  106  107 1   
   111  106  108 1   
   112  106  112 1   
   113  107  109 1   
   114  107  113 1   
   115  107  114 1   
   116  108  115 1   
   117  108  116 1   
   118  108  117 1   
   119  109  118 1   
   120  109  119 1   
   121  109  120 1   
   122  121  122 1   
   123  121  127 1   
   124  122  123 1   
   125  122  125 1   
   126  122  128 1   
   127  123  124 2   
   128  123  132 1   
   129  125  126 1   
   130  125  129 1   
   131  125  130 1   
   132  126  131 1   
   133  132  133 1   
   134  132  137 1   
   135  133  134 1   
   136  133  136 1   
   137  133  138 1   
   138  134  135 2   
   139  134  142 1   
   140  136  139 1   
   141  136  140 1   
   142  136  141 1   
   143  142  143 1   
   144  142  147 1   
   145  143  144 1   
   146  143  146 1   
   147  143  148 1   
   148  144  145 2   
   149  144  152 1   
   150  146  149 1   
   151  146  150 1   
   152  146  151 1   
   153  152  153 1   
   154  152  161 1   
   155  153  154 1   
   156  153  156 1   
   157  153  162 1   
   158  154  155 2   
   159  154  167 1   
   160  156  157 1   
   161  156  163 1   
   162  156  164 1   
   163  157  158 1   
   164  157  165 1   
   165  157  166 1   
   166  158  159 1   
   167  158  160 1   
   168  167  168 1   
   169  167  172 1   
   170  168  169 1   
   171  168  170 1   
   172  168  171 1   
   173  174  175 1   
   174  174  176 1   
   175  177  178 1   
   176  177  179 1   
@<TRIPOS>SUBSTRUCTURE
     1 MOL         1 TEMP              0 ****  ****    0 ROOT
