@<TRIPOS>MOLECULE
MOL
  189   185     1     0     0
SMALL
resp


@<TRIPOS>ATOM
      1 C1         -0.6220    3.6390    5.2090 c3        1 MOL     -0.449729
      2 C2         -0.9380    3.0700    3.7870 c         1 MOL      0.716136
      3 O1         -0.0860    2.9580    2.8910 o         1 MOL     -0.672139
      4 H1         -1.4600    3.4330    5.8770 hc        1 MOL      0.117334
      5 H2          0.2780    3.1640    5.6000 hc        1 MOL      0.117334
      6 H3         -0.4670    4.7160    5.1440 hc        1 MOL      0.117334
      7 N1         -2.1540    2.6650    3.5430 n         1 MOL     -0.577125
      8 C3         -2.6690    2.0710    2.3130 c3        1 MOL      0.182403
      9 C4         -3.0150    3.2290    1.3840 c         1 MOL      0.411271
     10 O2         -4.2210    3.5260    1.2280 o         1 MOL     -0.488667
     11 C5         -3.7410    1.0400    2.6120 c3        1 MOL     -0.152104
     12 C6         -4.3080    0.4030    1.3320 c         1 MOL      0.739356
     13 O3         -5.5020    0.0650    1.3220 o         1 MOL     -0.650765
     14 O4         -3.5520    0.4280    0.3380 o         1 MOL     -0.650765
     15 H4         -2.8810    2.8220    4.2230 hn        1 MOL      0.318510
     16 H5         -1.8590    1.5120    1.8400 h1        1 MOL      0.070630
     17 H6         -4.5460    1.4540    3.2250 hc        1 MOL      0.020660
     18 H7         -3.3170    0.2530    3.2370 hc        1 MOL      0.020660
     19 N2         -2.0410    3.9480    0.8600 n         1 MOL     -0.295209
     20 C7         -2.2680    5.2070    0.1560 c3        1 MOL     -0.116016
     21 C8         -3.1050    5.1060   -1.1520 c         1 MOL      0.476992
     22 O5         -3.8000    6.0670   -1.4290 o         1 MOL     -0.540219
     23 C9         -0.9590    5.9460   -0.2530 c3        1 MOL      0.006510
     24 C10        -0.1600    6.7810    0.7560 c3        1 MOL      0.033923
     25 C11         0.1970    5.9430    2.0680 c3        1 MOL     -0.054046
     26 C12         0.9870    6.7700    3.0570 c3        1 MOL     -0.001445
     27 N3          2.3990    6.8000    2.6620 n4        1 MOL     -0.381704
     28 H8         -1.0830    3.6410    0.9630 hn        1 MOL      0.363755
     29 H9         -2.7890    5.7690    0.9210 h1        1 MOL      0.105230
     30 H10        -1.2540    6.6360   -1.0420 hc        1 MOL      0.019687
     31 H11        -0.2850    5.2350   -0.7360 hc        1 MOL      0.019687
     32 H12        -0.7410    7.6420    1.0930 hc        1 MOL     -0.004188
     33 H13         0.7160    7.2490    0.2980 hc        1 MOL     -0.004188
     34 H14         0.7050    5.0750    1.6340 hc        1 MOL      0.049787
     35 H15        -0.7240    5.6650    2.5870 hc        1 MOL      0.049787
     36 H16         0.8670    6.2410    4.0010 hx        1 MOL      0.092986
     37 H17         0.5110    7.7350    3.2250 hx        1 MOL      0.092986
     38 H18         2.4710    7.0450    1.6830 hn        1 MOL      0.334519
     39 H19         3.0140    7.3760    3.2160 hn        1 MOL      0.334519
     40 H20         2.7680    5.8590    2.7160 hn        1 MOL      0.334519
     41 N4         -3.1150    3.9910   -1.9510 n         1 MOL     -0.290204
     42 C13        -3.9670    3.8160   -3.0880 c3        1 MOL      0.021922
     43 C14        -5.3910    3.2340   -2.8770 c         1 MOL      0.352157
     44 O6         -6.2460    3.2990   -3.7840 o         1 MOL     -0.518283
     45 C15        -3.1530    3.0850   -4.1710 c3        1 MOL     -0.306080
     46 C16        -2.3310    1.8920   -3.7170 c         1 MOL      0.794574
     47 O7         -2.5540    1.3780   -2.5600 o         1 MOL     -0.714121
     48 O8         -1.3710    1.5550   -4.4310 o         1 MOL     -0.714121
     49 H21        -2.5790    3.1760   -1.6510 hn        1 MOL      0.222934
     50 H22        -4.1550    4.7930   -3.5430 h1        1 MOL      0.097821
     51 H23        -2.5620    3.8450   -4.6610 hc        1 MOL      0.092582
     52 H24        -3.8600    2.7690   -4.9430 hc        1 MOL      0.092582
     53 N5         -5.6540    2.5000   -1.7680 n         1 MOL      0.101807
     54 C17        -6.9110    1.8590   -1.3440 c3        1 MOL     -0.351881
     55 C18        -7.2520    0.5030   -1.9740 c         1 MOL      0.713041
     56 O9         -8.1050    0.3950   -2.8790 o         1 MOL     -0.568287
     57 H25        -4.9130    2.3470   -1.0880 hn        1 MOL      0.034336
     58 H26        -7.6770    2.5950   -1.5730 h1        1 MOL      0.113465
     59 H27        -6.9320    1.8780   -0.2550 h1        1 MOL      0.113465
     60 N6         -6.5910   -0.5320   -1.4760 n         1 MOL     -0.471857
     61 C19        -6.7550   -1.9520   -1.8070 c3        1 MOL      0.040029
     62 C20        -6.8650   -3.0360   -0.5880 c         1 MOL      0.383883
     63 O10        -6.9780   -4.2150   -0.8160 o         1 MOL     -0.478785
     64 C21        -5.7550   -2.4410   -2.7810 c3        1 MOL     -0.130759
     65 C22        -4.3220   -2.2120   -2.3390 c         1 MOL      0.721191
     66 O11        -3.4440   -1.7500   -3.0710 o         1 MOL     -0.719481
     67 O12        -3.9270   -2.5380   -1.2320 o         1 MOL     -0.719481
     68 H28        -6.0030   -0.3170   -0.6850 hn        1 MOL      0.184127
     69 H29        -7.7230   -2.0610   -2.2790 h1        1 MOL      0.081974
     70 H30        -5.8610   -1.8570   -3.7000 hc        1 MOL      0.060804
     71 H31        -5.9250   -3.4930   -2.9850 hc        1 MOL      0.060804
     72 N7         -6.7870   -2.5780    0.6740 n         1 MOL     -0.211946
     73 C23        -6.7910   -3.3440    1.9310 c3        1 MOL     -0.299994
     74 C24        -5.4890   -4.1380    2.1040 c         1 MOL      0.582111
     75 O13        -5.5060   -5.1300    2.8470 o         1 MOL     -0.578030
     76 H32        -6.6200   -1.5780    0.7340 hn        1 MOL      0.236236
     77 H33        -7.6490   -4.0240    1.8880 h1        1 MOL      0.145211
     78 H34        -6.7710   -2.6360    2.7520 h1        1 MOL      0.145211
     79 N8         -4.3980   -3.7720    1.4420 n         1 MOL     -0.195164
     80 C25        -3.0640   -4.3270    1.5250 c3        1 MOL     -0.208363
     81 C26        -1.9130   -3.2850    1.4680 c         1 MOL      0.654480
     82 O14        -2.1010   -2.0940    1.0820 o         1 MOL     -0.716517
     83 C27        -2.8910   -5.4200    0.4790 c3        1 MOL      0.454081
     84 C28        -3.9960   -6.4440    0.6030 c3        1 MOL     -0.364434
     85 O15        -2.9960   -4.9530   -0.8530 oh        1 MOL     -0.686818
     86 H35        -4.5170   -3.0940    0.7120 hn        1 MOL      0.175831
     87 H36        -2.9840   -4.8280    2.4830 h1        1 MOL      0.070864
     88 H37        -1.8970   -5.8610    0.6170 h1        1 MOL     -0.023082
     89 H38        -3.3860   -4.0740   -0.8160 ho        1 MOL      0.489312
     90 H39        -3.7490   -7.1310   -0.1940 hc        1 MOL      0.092550
     91 H40        -3.8290   -7.1110    1.4580 hc        1 MOL      0.092550
     92 H41        -4.9460   -5.9810    0.3560 hc        1 MOL      0.092550
     93 N9         -0.6810   -3.7060    1.8080 n         1 MOL     -0.453382
     94 C29         0.5730   -2.9340    1.9740 c3        1 MOL      0.095745
     95 C30         1.7060   -3.4960    1.1500 c         1 MOL      0.556014
     96 O16         1.9560   -4.6820    1.2600 o         1 MOL     -0.564854
     97 C31         0.8380   -2.6340    3.5380 c3        1 MOL     -0.166039
     98 C32        -0.1760   -1.6780    4.0540 c3        1 MOL      0.022195
     99 C33         2.2700   -2.0810    3.6880 c3        1 MOL     -0.061047
    100 C34         0.0370   -1.3300    5.5260 c3        1 MOL     -0.151152
    101 H42        -0.5980   -4.6670    2.0930 hn        1 MOL      0.267121
    102 H43         0.3140   -1.9310    1.6270 h1        1 MOL      0.011783
    103 H44         0.6860   -3.6220    3.9740 hc        1 MOL      0.075488
    104 H45        -1.2170   -2.0070    3.9910 hc        1 MOL      0.063473
    105 H46        -0.1480   -0.7450    3.4800 hc        1 MOL      0.063473
    106 H47         3.0000   -2.7600    3.2450 hc        1 MOL      0.023621
    107 H48         2.4260   -1.0920    3.2660 hc        1 MOL      0.023621
    108 H49         2.5770   -2.0350    4.7320 hc        1 MOL      0.023621
    109 H50        -0.7910   -0.7020    5.8750 hc        1 MOL      0.040335
    110 H51        -0.0150   -2.1590    6.2330 hc        1 MOL      0.040335
    111 H52         0.9050   -0.6850    5.6570 hc        1 MOL      0.040335
    112 N10         2.3160   -2.6860    0.2900 n         1 MOL     -0.205537
    113 C35         3.4630   -2.9960   -0.6270 c3        1 MOL     -0.054948
    114 C36         4.7410   -2.5130    0.1540 c         1 MOL      0.372039
    115 O17         4.7010   -1.6790    1.0730 o         1 MOL     -0.315805
    116 C37         3.5110   -2.1210   -1.9110 c3        1 MOL      0.278623
    117 C38         2.3700   -2.3350   -2.8430 c3        1 MOL     -0.212837
    118 O18         3.3710   -0.7500   -1.6660 oh        1 MOL     -0.566514
    119 H53         1.8700   -1.7840    0.1650 hn        1 MOL      0.156311
    120 H54         3.7140   -4.0430   -0.8280 h1        1 MOL      0.083580
    121 H55         4.4310   -2.2870   -2.4760 h1        1 MOL      0.012299
    122 H56         2.4710   -0.6750   -1.3510 ho        1 MOL      0.383077
    123 H57         2.5330   -3.3430   -3.2200 hc        1 MOL      0.051004
    124 H58         1.4890   -1.9830   -2.3080 hc        1 MOL      0.051004
    125 H59         2.4660   -1.6470   -3.6870 hc        1 MOL      0.051004
    126 N11         5.9140   -3.0000   -0.2520 n         1 MOL     -0.409494
    127 C39         7.2220   -2.3360    0.0600 c3        1 MOL     -0.043251
    128 C40         7.3940   -0.8230    0.0440 c         1 MOL      0.197519
    129 O19         8.1180   -0.2390    0.8750 o         1 MOL     -0.487507
    130 C41         8.3790   -2.7690   -0.8530 c3        1 MOL      0.116489
    131 C42         8.7680   -4.2380   -0.5670 c3        1 MOL     -0.332403
    132 O20         8.1120   -2.7130   -2.2610 oh        1 MOL     -0.599401
    133 H60         5.9670   -3.6900   -0.9920 hn        1 MOL      0.327709
    134 H61         7.3120   -2.5380    1.1300 h1        1 MOL      0.163932
    135 H62         9.3230   -2.2480   -0.6780 h1        1 MOL      0.107665
    136 H63         9.0260   -2.7840   -2.5730 ho        1 MOL      0.414554
    137 H64         8.9890   -4.6220    0.4250 hc        1 MOL      0.101576
    138 H65         8.0440   -4.9200   -1.0160 hc        1 MOL      0.101576
    139 H66         9.6630   -4.3790   -1.1780 hc        1 MOL      0.101576
    140 N12         6.7310   -0.1100   -0.8400 n         1 MOL     -0.048432
    141 C43         6.7030    1.3900   -0.8860 c3        1 MOL     -0.075207
    142 C44         5.7130    1.9400    0.1630 c         1 MOL      0.476280
    143 O21         5.8530    3.1430    0.4990 o         1 MOL     -0.594293
    144 C45         6.2820    1.9610   -2.3110 c3        1 MOL     -0.235889
    145 C46         7.3380    1.7800   -3.4600 c3        1 MOL      0.051483
    146 C47         7.5560    0.3040   -3.9280 c3        1 MOL      0.002687
    147 C48         8.3510    0.1190   -5.2670 c3        1 MOL     -0.107388
    148 N13         9.6890    0.7140   -5.2400 n4        1 MOL     -0.357682
    149 H67         6.0490   -0.5850   -1.4180 hn        1 MOL      0.250075
    150 H68         7.6890    1.7350   -0.5950 h1        1 MOL      0.116970
    151 H69         6.0950    3.0270   -2.1440 hc        1 MOL      0.117980
    152 H70         5.4040    1.4140   -2.6580 hc        1 MOL      0.117980
    153 H71         8.3140    2.1700   -3.1470 hc        1 MOL      0.005910
    154 H72         7.0220    2.4110   -4.2850 hc        1 MOL      0.005910
    155 H73         6.6210   -0.2540   -3.9770 hc        1 MOL      0.032740
    156 H74         8.1600   -0.2250   -3.1930 hc        1 MOL      0.032740
    157 H75         7.6970    0.5980   -5.9920 hx        1 MOL      0.124947
    158 H76         8.3560   -0.9550   -5.4840 hx        1 MOL      0.124947
    159 H77        10.1830    0.3790   -6.0560 hn        1 MOL      0.315801
    160 H78         9.6620    1.7170   -5.3750 hn        1 MOL      0.315801
    161 H79        10.1040    0.4820   -4.3510 hn        1 MOL      0.315801
    162 N14         4.8830    1.1930    0.8100 n         1 MOL     -0.018279
    163 C49         3.9840    1.6300    1.8610 c3        1 MOL     -0.282875
    164 C50         4.3760    1.1460    3.3030 c         1 MOL      0.509832
    165 O22         3.9920    1.6940    4.3180 o         1 MOL     -0.545332
    166 C51         2.5330    1.2730    1.5730 c3        1 MOL      0.084293
    167 C52         1.8590    1.9130    0.2980 c3        1 MOL     -0.089702
    168 C53         0.6960    0.9580   -0.1780 c         1 MOL      0.695708
    169 O23        -0.4370    1.4360   -0.2260 o         1 MOL     -0.712926
    170 O24         0.8590   -0.2440   -0.4910 o         1 MOL     -0.712926
    171 H80         4.8600    0.2060    0.6110 hn        1 MOL     -0.079438
    172 H81         3.9910    2.7090    1.9930 h1        1 MOL      0.129822
    173 H82         1.8610    1.4370    2.4130 hc        1 MOL      0.065133
    174 H83         2.5980    0.1960    1.4200 hc        1 MOL      0.065133
    175 H84         2.6150    1.9100   -0.4880 hc        1 MOL     -0.007348
    176 H85         1.4530    2.9110    0.4800 hc        1 MOL     -0.007348
    177 N15         5.2570    0.1530    3.3300 n         1 MOL     -0.276255
    178 C54         5.7870   -0.6580    4.4650 c3        1 MOL     -0.071332
    179 H86         6.8730   -0.7180    4.3920 h1        1 MOL      0.067052
    180 H87         5.5120   -0.1860    5.4090 h1        1 MOL      0.067052
    181 H88         5.3650   -1.6610    4.4240 h1        1 MOL      0.067052
    182 H89         5.3800   -0.2070    2.3950 hn        1 MOL      0.251843
    183 Ca1        -1.7810   -0.8100   -1.1090 Ca        1 MOL      1.757846
    184 O25        -0.5280   -0.8120   -3.5430 oh        1 MOL     -0.866305
    185 H90         0.1880   -0.9200   -4.1710 ho        1 MOL      0.409229
    186 H91        -0.9290    0.0220   -3.7730 ho        1 MOL      0.409229
    187 O26        -0.8940   -3.4420   -1.8770 oh        1 MOL     -0.866305
    188 H92        -1.3960   -4.2520   -1.8080 ho        1 MOL      0.409229
    189 H93        -0.9920   -3.1680   -2.7870 ho        1 MOL      0.409229
@<TRIPOS>BOND
     1    1    2 1   
     2    1    4 1   
     3    1    5 1   
     4    1    6 1   
     5    2    3 2   
     6    2    7 1   
     7    7    8 1   
     8    7   15 1   
     9    8    9 1   
    10    8   11 1   
    11    8   16 1   
    12    9   10 2   
    13    9   19 1   
    14   11   12 1   
    15   11   17 1   
    16   11   18 1   
    17   12   13 1   
    18   12   14 1   
    19   19   20 1   
    20   19   28 1   
    21   20   21 1   
    22   20   23 1   
    23   20   29 1   
    24   21   22 2   
    25   21   41 1   
    26   23   24 1   
    27   23   30 1   
    28   23   31 1   
    29   24   25 1   
    30   24   32 1   
    31   24   33 1   
    32   25   26 1   
    33   25   34 1   
    34   25   35 1   
    35   26   27 1   
    36   26   36 1   
    37   26   37 1   
    38   27   38 1   
    39   27   39 1   
    40   27   40 1   
    41   41   42 1   
    42   41   49 1   
    43   42   43 1   
    44   42   45 1   
    45   42   50 1   
    46   43   44 2   
    47   43   53 1   
    48   45   46 1   
    49   45   51 1   
    50   45   52 1   
    51   46   47 1   
    52   46   48 1   
    53   53   54 1   
    54   53   57 1   
    55   54   55 1   
    56   54   58 1   
    57   54   59 1   
    58   55   56 2   
    59   55   60 1   
    60   60   61 1   
    61   60   68 1   
    62   61   62 1   
    63   61   64 1   
    64   61   69 1   
    65   62   63 2   
    66   62   72 1   
    67   64   65 1   
    68   64   70 1   
    69   64   71 1   
    70   65   66 1   
    71   65   67 1   
    72   72   73 1   
    73   72   76 1   
    74   73   74 1   
    75   73   77 1   
    76   73   78 1   
    77   74   75 2   
    78   74   79 1   
    79   79   80 1   
    80   79   86 1   
    81   80   81 1   
    82   80   83 1   
    83   80   87 1   
    84   81   82 2   
    85   81   93 1   
    86   83   84 1   
    87   83   85 1   
    88   83   88 1   
    89   84   90 1   
    90   84   91 1   
    91   84   92 1   
    92   85   89 1   
    93   93   94 1   
    94   93  101 1   
    95   94   95 1   
    96   94   97 1   
    97   94  102 1   
    98   95   96 2   
    99   95  112 1   
   100   97   98 1   
   101   97   99 1   
   102   97  103 1   
   103   98  100 1   
   104   98  104 1   
   105   98  105 1   
   106   99  106 1   
   107   99  107 1   
   108   99  108 1   
   109  100  109 1   
   110  100  110 1   
   111  100  111 1   
   112  112  113 1   
   113  112  119 1   
   114  113  114 1   
   115  113  116 1   
   116  113  120 1   
   117  114  115 2   
   118  114  126 1   
   119  116  117 1   
   120  116  118 1   
   121  116  121 1   
   122  117  123 1   
   123  117  124 1   
   124  117  125 1   
   125  118  122 1   
   126  126  127 1   
   127  126  133 1   
   128  127  128 1   
   129  127  130 1   
   130  127  134 1   
   131  128  129 2   
   132  128  140 1   
   133  130  131 1   
   134  130  132 1   
   135  130  135 1   
   136  131  137 1   
   137  131  138 1   
   138  131  139 1   
   139  132  136 1   
   140  140  141 1   
   141  140  149 1   
   142  141  142 1   
   143  141  144 1   
   144  141  150 1   
   145  142  143 2   
   146  142  162 1   
   147  144  145 1   
   148  144  151 1   
   149  144  152 1   
   150  145  146 1   
   151  145  153 1   
   152  145  154 1   
   153  146  147 1   
   154  146  155 1   
   155  146  156 1   
   156  147  148 1   
   157  147  157 1   
   158  147  158 1   
   159  148  159 1   
   160  148  160 1   
   161  148  161 1   
   162  162  163 1   
   163  162  171 1   
   164  163  164 1   
   165  163  166 1   
   166  163  172 1   
   167  164  165 2   
   168  164  177 1   
   169  166  167 1   
   170  166  173 1   
   171  166  174 1   
   172  167  168 1   
   173  167  175 1   
   174  167  176 1   
   175  168  169 1   
   176  168  170 1   
   177  177  178 1   
   178  177  182 1   
   179  178  179 1   
   180  178  180 1   
   181  178  181 1   
   182  184  185 1   
   183  184  186 1   
   184  187  188 1   
   185  187  189 1   
@<TRIPOS>SUBSTRUCTURE
     1 MOL         1 TEMP              0 ****  ****    0 ROOT
