@<TRIPOS>MOLECULE
MOL
  189   185     1     0     0
SMALL
resp


@<TRIPOS>ATOM
      1 C1         -0.2940    0.0440    6.5450 c3        1 MOL     -0.388119
      2 C2         -0.6210    0.1960    5.0390 c         1 MOL      0.719441
      3 O1          0.2180    0.6730    4.2410 o         1 MOL     -0.631746
      4 H1          0.7060   -0.3740    6.6590 hc        1 MOL      0.105882
      5 H2         -0.3370    1.0210    7.0270 hc        1 MOL      0.105882
      6 H3         -1.0210   -0.6220    7.0090 hc        1 MOL      0.105882
      7 N1         -1.7870   -0.1920    4.5210 n         1 MOL     -0.509515
      8 C3         -2.2320    0.3680    3.1770 c3        1 MOL     -0.036861
      9 C4         -2.3790    1.9140    3.2660 c         1 MOL      0.464259
     10 O2         -3.1440    2.4280    4.0700 o         1 MOL     -0.560232
     11 C5         -3.5720   -0.3400    2.8830 c3        1 MOL     -0.161414
     12 C6         -4.3390    0.1590    1.6630 c         1 MOL      0.782385
     13 O3         -5.5670    0.0620    1.6970 o         1 MOL     -0.675151
     14 O4         -3.8210    0.5530    0.5910 o         1 MOL     -0.675151
     15 H4         -2.4110   -0.5530    5.2290 hn        1 MOL      0.314264
     16 H5         -1.4750    0.1480    2.4190 h1        1 MOL      0.091854
     17 H6         -4.2390   -0.2840    3.7460 hc        1 MOL      0.054991
     18 H7         -3.3940   -1.4010    2.7210 hc        1 MOL      0.054991
     19 N2         -1.8030    2.7350    2.4080 n         1 MOL     -0.047692
     20 C7         -1.6870    4.1980    2.4840 c3        1 MOL     -0.077637
     21 C8         -2.7940    4.8410    1.7000 c         1 MOL      0.565101
     22 O5         -3.0180    6.0050    1.9290 o         1 MOL     -0.585276
     23 C9         -0.2500    4.6410    2.0700 c3        1 MOL     -0.265186
     24 C10         0.0420    4.7470    0.5540 c3        1 MOL      0.223767
     25 C11         1.4420    5.3680    0.2790 c3        1 MOL     -0.165686
     26 C12         1.6360    5.6830   -1.2310 c3        1 MOL      0.005282
     27 N3          1.4920    4.5350   -2.1230 n4        1 MOL     -0.342057
     28 H8         -1.2650    2.3480    1.6440 hn        1 MOL      0.093996
     29 H9         -1.7740    4.5340    3.5130 h1        1 MOL      0.114556
     30 H10         0.4890    3.9650    2.5020 hc        1 MOL      0.101349
     31 H11        -0.0230    5.6360    2.4610 hc        1 MOL      0.101349
     32 H12        -0.6930    5.3650    0.0410 hc        1 MOL     -0.001667
     33 H13        -0.2000    3.8190    0.0390 hc        1 MOL     -0.001667
     34 H14         2.2360    4.7100    0.6540 hc        1 MOL      0.051736
     35 H15         1.4610    6.3100    0.8240 hc        1 MOL      0.051736
     36 H16         2.6330    6.0950   -1.3750 hx        1 MOL      0.073853
     37 H17         0.8710    6.4420   -1.4250 hx        1 MOL      0.073853
     38 H18         1.7230    4.8540   -3.0510 hn        1 MOL      0.309853
     39 H19         2.1570    3.8120   -1.9210 hn        1 MOL      0.309853
     40 H20         0.5460    4.2020   -2.2180 hn        1 MOL      0.309853
     41 N4         -3.4860    4.1800    0.8440 n         1 MOL     -0.418158
     42 C13        -4.2790    4.6900   -0.2890 c3        1 MOL      0.212172
     43 C14        -5.3790    3.7570   -0.7380 c         1 MOL      0.426878
     44 O6         -5.9500    3.9010   -1.7840 o         1 MOL     -0.487534
     45 C15        -3.3910    5.0340   -1.4660 c3        1 MOL     -0.369062
     46 C16        -2.4040    3.8890   -1.8600 c         1 MOL      0.979220
     47 O7         -1.4560    4.1890   -2.5830 o         1 MOL     -0.774755
     48 O8         -2.6080    2.6490   -1.6400 o         1 MOL     -0.774755
     49 H21        -3.1180    3.2460    0.6790 hn        1 MOL      0.110023
     50 H22        -4.9010    5.5330    0.0230 h1        1 MOL      0.072530
     51 H23        -2.7860    5.8940   -1.1670 hc        1 MOL      0.086912
     52 H24        -4.0620    5.3360   -2.2720 hc        1 MOL      0.086912
     53 N5         -5.8020    2.8850    0.1940 n         1 MOL     -0.286224
     54 C17        -7.1810    2.4610    0.1360 c3        1 MOL     -0.144251
     55 C18        -7.5620    1.2950   -0.7730 c         1 MOL      0.438646
     56 O9         -8.7250    1.2530   -1.2430 o         1 MOL     -0.569992
     57 H25        -5.4280    3.0060    1.1220 hn        1 MOL      0.261194
     58 H26        -7.8040    3.3080   -0.1440 h1        1 MOL      0.096236
     59 H27        -7.5440    2.2890    1.1510 h1        1 MOL      0.096236
     60 N6         -6.6010    0.5140   -1.1470 n         1 MOL     -0.083252
     61 C19        -6.9530   -0.5900   -2.0640 c3        1 MOL     -0.022904
     62 C20        -7.1030   -1.9440   -1.3040 c         1 MOL      0.314090
     63 O10        -7.6860   -2.9360   -1.8370 o         1 MOL     -0.509678
     64 C21        -6.0460   -0.6150   -3.3320 c3        1 MOL     -0.158725
     65 C22        -4.5820   -0.4860   -2.8650 c         1 MOL      0.736402
     66 O11        -3.8760    0.4060   -3.4070 o         1 MOL     -0.722607
     67 O12        -4.0950   -1.2680   -2.0630 o         1 MOL     -0.722607
     68 H28        -5.6520    0.6610   -0.8500 hn        1 MOL      0.138536
     69 H29        -7.9640   -0.4990   -2.4460 h1        1 MOL      0.129186
     70 H30        -6.3580    0.1990   -3.9910 hc        1 MOL      0.058022
     71 H31        -6.1920   -1.5590   -3.8630 hc        1 MOL      0.058022
     72 N7         -6.6600   -2.0040   -0.0390 n         1 MOL     -0.085273
     73 C23        -6.5260   -3.2100    0.7650 c3        1 MOL     -0.239832
     74 C24        -5.5130   -4.1850    0.2460 c         1 MOL      0.577638
     75 O13        -5.6390   -5.3820    0.4330 o         1 MOL     -0.555911
     76 H32        -6.1590   -1.2000    0.3330 hn        1 MOL      0.137805
     77 H33        -7.4730   -3.7590    0.7950 h1        1 MOL      0.110649
     78 H34        -6.1910   -2.9260    1.7620 h1        1 MOL      0.110649
     79 N8         -4.4420   -3.7000   -0.3910 n         1 MOL     -0.174921
     80 C25        -3.1810   -4.3240   -0.6800 c3        1 MOL     -0.410883
     81 C26        -1.9960   -3.4810   -0.2180 c         1 MOL      0.871377
     82 O14        -1.9400   -2.2140   -0.2400 o         1 MOL     -0.801515
     83 C27        -3.1180   -4.6290   -2.1440 c3        1 MOL      0.497730
     84 C28        -4.2140   -5.6420   -2.6440 c3        1 MOL     -0.484980
     85 O15        -3.4180   -3.4940   -3.0100 oh        1 MOL     -0.633826
     86 H35        -4.4650   -2.7500   -0.7410 hn        1 MOL      0.162771
     87 H36        -3.1310   -5.2770   -0.1610 h1        1 MOL      0.144625
     88 H37        -2.1510   -5.0280   -2.4300 h1        1 MOL     -0.018962
     89 H38        -3.7930   -2.7940   -2.4540 ho        1 MOL      0.444430
     90 H39        -4.2490   -6.4650   -1.9340 hc        1 MOL      0.125368
     91 H40        -5.1840   -5.1600   -2.5570 hc        1 MOL      0.125368
     92 H41        -4.0560   -5.9730   -3.6730 hc        1 MOL      0.125368
     93 N9         -0.8700   -4.1610    0.1250 n         1 MOL     -0.679644
     94 C29         0.4130   -3.5600    0.5700 c3        1 MOL      0.070181
     95 C30         1.4650   -3.7640   -0.5480 c         1 MOL      0.575245
     96 O16         1.6540   -4.8310   -1.0960 o         1 MOL     -0.563028
     97 C31         0.7920   -4.1570    1.9310 c3        1 MOL      0.026672
     98 C32        -0.2630   -3.5010    2.9020 c3        1 MOL      0.214143
     99 C33         2.2400   -3.9020    2.3170 c3        1 MOL     -0.195947
    100 C34        -0.1140   -3.7970    4.4390 c3        1 MOL     -0.347489
    101 H42        -0.8190   -5.1650    0.0350 hn        1 MOL      0.316815
    102 H43         0.3430   -2.4770    0.6120 h1        1 MOL      0.195812
    103 H44         0.5770   -5.2220    2.0660 hc        1 MOL      0.038191
    104 H45        -1.2470   -3.8950    2.6590 hc        1 MOL     -0.020016
    105 H46        -0.2990   -2.4110    2.9190 hc        1 MOL     -0.020016
    106 H47         2.8360   -4.5180    1.6380 hc        1 MOL      0.032696
    107 H48         2.5630   -2.8650    2.3080 hc        1 MOL      0.032696
    108 H49         2.4770   -4.1870    3.3370 hc        1 MOL      0.032696
    109 H50        -1.0600   -3.5300    4.9200 hc        1 MOL      0.073764
    110 H51         0.0360   -4.8670    4.5450 hc        1 MOL      0.073764
    111 H52         0.8120   -3.3080    4.7520 hc        1 MOL      0.073764
    112 N10         2.2640   -2.7090   -0.7920 n         1 MOL      0.030633
    113 C35         3.3140   -2.6120   -1.7430 c3        1 MOL     -0.275156
    114 C36         4.7020   -2.6670   -1.0520 c         1 MOL      0.418488
    115 O17         4.7760   -2.7960    0.1640 o         1 MOL     -0.338419
    116 C37         3.2270   -1.3930   -2.6240 c3        1 MOL      0.367676
    117 C38         2.1060   -1.4040   -3.6210 c3        1 MOL     -0.468313
    118 O18         3.1860   -0.2500   -1.8980 oh        1 MOL     -0.643447
    119 H53         2.0540   -1.8830   -0.2430 hn        1 MOL     -0.213386
    120 H54         3.2250   -3.4260   -2.4550 h1        1 MOL      0.131514
    121 H55         4.0880   -1.3460   -3.2790 h1        1 MOL      0.016966
    122 H56         2.2960   -0.2080   -1.5460 ho        1 MOL      0.402123
    123 H57         2.0180   -0.5100   -4.2380 hc        1 MOL      0.132312
    124 H58         2.2040   -2.3160   -4.2010 hc        1 MOL      0.132312
    125 H59         1.2040   -1.5560   -3.0300 hc        1 MOL      0.132312
    126 N11         5.8980   -2.4450   -1.7080 n         1 MOL     -0.185480
    127 C39         7.2470   -2.4110   -1.1140 c3        1 MOL     -0.597091
    128 C40         7.4720   -1.2160   -0.1630 c         1 MOL      0.617263
    129 O19         8.0410   -1.4530    0.9120 o         1 MOL     -0.479661
    130 C41         8.5000   -2.4070   -2.0850 c3        1 MOL      0.558397
    131 C42         8.4730   -3.6170   -3.0190 c3        1 MOL     -0.405227
    132 O20         8.5210   -1.2140   -2.7750 oh        1 MOL     -0.691635
    133 H60         5.8290   -2.1690   -2.6800 hn        1 MOL      0.168551
    134 H61         7.2390   -3.3240   -0.5070 h1        1 MOL      0.228787
    135 H62         9.3970   -2.4170   -1.4620 h1        1 MOL      0.052095
    136 H63         7.6810   -0.9130   -3.1430 ho        1 MOL      0.425813
    137 H64         7.6050   -3.5340   -3.6720 hc        1 MOL      0.109208
    138 H65         9.3010   -3.5660   -3.7220 hc        1 MOL      0.109208
    139 H66         8.6500   -4.5680   -2.5130 hc        1 MOL      0.109208
    140 N12         7.0130    0.0290   -0.4940 n         1 MOL     -0.474673
    141 C43         7.0590    1.1690    0.4160 c3        1 MOL     -0.024838
    142 C44         6.0950    0.9080    1.6070 c         1 MOL      0.321339
    143 O21         6.3700    1.0730    2.7990 o         1 MOL     -0.484562
    144 C45         6.7200    2.4250   -0.2720 c3        1 MOL     -0.110706
    145 C46         7.8050    2.8500   -1.2470 c3        1 MOL      0.125038
    146 C47         7.3240    3.9990   -2.1310 c3        1 MOL     -0.057932
    147 C48         8.4310    4.3090   -3.1700 c3        1 MOL     -0.026958
    148 N13         9.6700    4.8750   -2.6540 n4        1 MOL     -0.301284
    149 H67         6.6560    0.1580   -1.4250 hn        1 MOL      0.308433
    150 H68         8.0390    1.1780    0.9000 h1        1 MOL      0.114094
    151 H69         6.5940    3.2780    0.3950 hc        1 MOL      0.063368
    152 H70         5.7750    2.3530   -0.8040 hc        1 MOL      0.063368
    153 H71         7.9490    2.0730   -2.0010 hc        1 MOL     -0.007141
    154 H72         8.7060    3.1600   -0.7240 hc        1 MOL     -0.007141
    155 H73         7.1140    4.8510   -1.4840 hc        1 MOL      0.037261
    156 H74         6.4000    3.7340   -2.6420 hc        1 MOL      0.037261
    157 H75         7.9350    5.0090   -3.8440 hx        1 MOL      0.096390
    158 H76         8.5870    3.4280   -3.7880 hx        1 MOL      0.096390
    159 H77        10.1540    5.4320   -3.3510 hn        1 MOL      0.304742
    160 H78         9.4360    5.5890   -1.9710 hn        1 MOL      0.304742
    161 H79        10.3310    4.2480   -2.2330 hn        1 MOL      0.304742
    162 N14         4.8930    0.4860    1.3810 n         1 MOL     -0.149001
    163 C49         3.9370    0.2160    2.4870 c3        1 MOL     -0.159518
    164 C50         4.2940   -0.8750    3.4080 c         1 MOL      0.490549
    165 O22         4.0460   -0.7490    4.6070 o         1 MOL     -0.554065
    166 C51         2.5930   -0.1070    1.7320 c3        1 MOL      0.142361
    167 C52         1.9400    1.0810    1.1470 c3        1 MOL     -0.083769
    168 C53         0.6440    0.6930    0.3650 c         1 MOL      0.611596
    169 O23        -0.4110    1.2230    0.5980 o         1 MOL     -0.638686
    170 O24         0.7560   -0.1420   -0.5450 o         1 MOL     -0.638686
    171 H80         4.5620    0.4570    0.4260 hn        1 MOL      0.167829
    172 H81         3.7870    1.1010    3.1110 h1        1 MOL      0.135250
    173 H82         1.9400   -0.6200    2.4430 hc        1 MOL      0.063376
    174 H83         2.8040   -0.8590    0.9690 hc        1 MOL      0.063376
    175 H84         2.6320    1.6530    0.5350 hc        1 MOL     -0.013243
    176 H85         1.6300    1.7560    1.9410 hc        1 MOL     -0.013243
    177 N15         4.9280   -1.9440    2.9500 n         1 MOL      0.036040
    178 C54         5.5700   -2.9960    3.6880 c3        1 MOL     -0.292642
    179 H86         6.4010   -3.3920    3.1070 h1        1 MOL      0.102526
    180 H87         5.9440   -2.6010    4.6330 h1        1 MOL      0.102526
    181 H88         4.8530   -3.7920    3.8850 h1        1 MOL      0.102526
    182 H89         5.0470   -2.0900    1.9590 hn        1 MOL      0.084519
    183 Ca1        -1.9510    0.2210   -1.3010 Ca        1 MOL      1.788282
    184 O25        -1.2480   -1.5990   -3.2990 oh        1 MOL     -0.898153
    185 H90        -0.8860   -1.2150   -4.0900 ho        1 MOL      0.411455
    186 H91        -1.7320   -2.3680   -3.5970 ho        1 MOL      0.411455
    187 O26        -0.5340    1.7440   -3.1400 oh        1 MOL     -0.898153
    188 H92        -1.1490    2.4590   -2.9810 ho        1 MOL      0.411455
    189 H93        -0.2820    1.8340   -4.0580 ho        1 MOL      0.411455
@<TRIPOS>BOND
     1    1    2 1   
     2    1    4 1   
     3    1    5 1   
     4    1    6 1   
     5    2    3 2   
     6    2    7 1   
     7    7    8 1   
     8    7   15 1   
     9    8    9 1   
    10    8   11 1   
    11    8   16 1   
    12    9   10 2   
    13    9   19 1   
    14   11   12 1   
    15   11   17 1   
    16   11   18 1   
    17   12   13 1   
    18   12   14 1   
    19   19   20 1   
    20   19   28 1   
    21   20   21 1   
    22   20   23 1   
    23   20   29 1   
    24   21   22 2   
    25   21   41 1   
    26   23   24 1   
    27   23   30 1   
    28   23   31 1   
    29   24   25 1   
    30   24   32 1   
    31   24   33 1   
    32   25   26 1   
    33   25   34 1   
    34   25   35 1   
    35   26   27 1   
    36   26   36 1   
    37   26   37 1   
    38   27   38 1   
    39   27   39 1   
    40   27   40 1   
    41   41   42 1   
    42   41   49 1   
    43   42   43 1   
    44   42   45 1   
    45   42   50 1   
    46   43   44 2   
    47   43   53 1   
    48   45   46 1   
    49   45   51 1   
    50   45   52 1   
    51   46   47 1   
    52   46   48 1   
    53   53   54 1   
    54   53   57 1   
    55   54   55 1   
    56   54   58 1   
    57   54   59 1   
    58   55   56 2   
    59   55   60 1   
    60   60   61 1   
    61   60   68 1   
    62   61   62 1   
    63   61   64 1   
    64   61   69 1   
    65   62   63 2   
    66   62   72 1   
    67   64   65 1   
    68   64   70 1   
    69   64   71 1   
    70   65   66 1   
    71   65   67 1   
    72   72   73 1   
    73   72   76 1   
    74   73   74 1   
    75   73   77 1   
    76   73   78 1   
    77   74   75 2   
    78   74   79 1   
    79   79   80 1   
    80   79   86 1   
    81   80   81 1   
    82   80   83 1   
    83   80   87 1   
    84   81   82 2   
    85   81   93 1   
    86   83   84 1   
    87   83   85 1   
    88   83   88 1   
    89   84   90 1   
    90   84   91 1   
    91   84   92 1   
    92   85   89 1   
    93   93   94 1   
    94   93  101 1   
    95   94   95 1   
    96   94   97 1   
    97   94  102 1   
    98   95   96 2   
    99   95  112 1   
   100   97   98 1   
   101   97   99 1   
   102   97  103 1   
   103   98  100 1   
   104   98  104 1   
   105   98  105 1   
   106   99  106 1   
   107   99  107 1   
   108   99  108 1   
   109  100  109 1   
   110  100  110 1   
   111  100  111 1   
   112  112  113 1   
   113  112  119 1   
   114  113  114 1   
   115  113  116 1   
   116  113  120 1   
   117  114  115 2   
   118  114  126 1   
   119  116  117 1   
   120  116  118 1   
   121  116  121 1   
   122  117  123 1   
   123  117  124 1   
   124  117  125 1   
   125  118  122 1   
   126  126  127 1   
   127  126  133 1   
   128  127  128 1   
   129  127  130 1   
   130  127  134 1   
   131  128  129 2   
   132  128  140 1   
   133  130  131 1   
   134  130  132 1   
   135  130  135 1   
   136  131  137 1   
   137  131  138 1   
   138  131  139 1   
   139  132  136 1   
   140  140  141 1   
   141  140  149 1   
   142  141  142 1   
   143  141  144 1   
   144  141  150 1   
   145  142  143 2   
   146  142  162 1   
   147  144  145 1   
   148  144  151 1   
   149  144  152 1   
   150  145  146 1   
   151  145  153 1   
   152  145  154 1   
   153  146  147 1   
   154  146  155 1   
   155  146  156 1   
   156  147  148 1   
   157  147  157 1   
   158  147  158 1   
   159  148  159 1   
   160  148  160 1   
   161  148  161 1   
   162  162  163 1   
   163  162  171 1   
   164  163  164 1   
   165  163  166 1   
   166  163  172 1   
   167  164  165 2   
   168  164  177 1   
   169  166  167 1   
   170  166  173 1   
   171  166  174 1   
   172  167  168 1   
   173  167  175 1   
   174  167  176 1   
   175  168  169 1   
   176  168  170 1   
   177  177  178 1   
   178  177  182 1   
   179  178  179 1   
   180  178  180 1   
   181  178  181 1   
   182  184  185 1   
   183  184  186 1   
   184  187  188 1   
   185  187  189 1   
@<TRIPOS>SUBSTRUCTURE
     1 MOL         1 TEMP              0 ****  ****    0 ROOT
