@<TRIPOS>MOLECULE
MOL
  179   176     1     0     0
SMALL
resp


@<TRIPOS>ATOM
      1 C1         -1.5990   -2.5940    6.1300 c3        1 MOL     -0.405381
      2 C2         -1.4670   -2.3590    4.5720 c         1 MOL      0.680916
      3 O1         -2.3400   -1.7240    3.9400 o         1 MOL     -0.558517
      4 H1         -2.5570   -3.0660    6.3470 hc        1 MOL      0.107716
      5 H2         -0.7900   -3.2400    6.4710 hc        1 MOL      0.107716
      6 H3         -1.5410   -1.6370    6.6490 hc        1 MOL      0.107716
      7 N1         -0.3810   -2.9480    4.0010 n         1 MOL     -0.567681
      8 C3          0.1760   -2.5810    2.6790 c3        1 MOL      0.092443
      9 C4          0.2380   -3.8100    1.7530 c         1 MOL      0.457166
     10 O2          0.8940   -4.8220    2.0950 o         1 MOL     -0.557959
     11 C5          1.5930   -2.0310    2.9440 c3        1 MOL     -0.030920
     12 C6          2.3320   -1.4130    1.8090 c         1 MOL      0.522792
     13 O3          3.4360   -0.7620    2.0200 o         1 MOL     -0.697178
     14 O4          1.8870   -1.5790    0.6650 o         1 MOL     -0.697178
     15 H4          0.2250   -3.3930    4.6700 hn        1 MOL      0.314158
     16 H5         -0.4790   -1.8760    2.1770 h1        1 MOL      0.017539
     17 H6          2.1990   -2.8270    3.3790 hc        1 MOL      0.045061
     18 H7          1.4940   -1.2430    3.6990 hc        1 MOL      0.045061
     19 N2         -0.3660   -3.8750    0.5650 n         1 MOL     -0.338152
     20 C7         -0.5680   -5.1420   -0.1760 c3        1 MOL      0.017033
     21 C8          0.6560   -5.5670   -0.8610 c         1 MOL      0.534508
     22 O5          0.6650   -6.6460   -1.4230 o         1 MOL     -0.567600
     23 C9         -1.8140   -5.1330   -1.0540 c3        1 MOL     -0.180189
     24 C10        -2.9910   -5.2730   -0.1460 c3        1 MOL      0.022839
     25 C11        -4.1750   -5.5880   -1.0290 c3        1 MOL      0.007019
     26 C12        -5.4070   -5.9850   -0.2490 c3        1 MOL      0.058005
     27 N3         -6.5690   -6.0350   -1.1350 n4        1 MOL     -0.376077
     28 H8         -0.6910   -2.9970    0.1930 hn        1 MOL      0.299046
     29 H9         -0.6300   -5.9810    0.5170 h1        1 MOL      0.095839
     30 H10        -1.8680   -5.9950   -1.7210 hc        1 MOL      0.075198
     31 H11        -1.9080   -4.2240   -1.6430 hc        1 MOL      0.075198
     32 H12        -3.1430   -4.3600    0.4240 hc        1 MOL      0.035194
     33 H13        -2.7840   -6.1300    0.4950 hc        1 MOL      0.035194
     34 H14        -3.8400   -6.3530   -1.7340 hc        1 MOL      0.020015
     35 H15        -4.3710   -4.6880   -1.5990 hc        1 MOL      0.020015
     36 H16        -5.4760   -5.2570    0.5590 hx        1 MOL      0.072243
     37 H17        -5.1800   -6.9470    0.1930 hx        1 MOL      0.072243
     38 H18        -7.3710   -6.3850   -0.6220 hn        1 MOL      0.331146
     39 H19        -6.9160   -5.1180   -1.4070 hn        1 MOL      0.331146
     40 H20        -6.4780   -6.6120   -1.9530 hn        1 MOL      0.331146
     41 N4          1.7770   -4.7480   -0.8990 n         1 MOL     -0.253727
     42 C13         2.9920   -5.1630   -1.4580 c3        1 MOL     -0.164449
     43 C14         4.1990   -4.7420   -0.6830 c         1 MOL      0.465464
     44 O6          5.3700   -4.8670   -1.0460 o         1 MOL     -0.524631
     45 C15         3.0720   -4.7810   -2.9270 c3        1 MOL      0.088063
     46 C16         2.9790   -3.3040   -3.2020 c         1 MOL      0.651792
     47 O7          2.8570   -2.4470   -2.2680 o         1 MOL     -0.710022
     48 O8          2.9110   -2.8950   -4.3700 o         1 MOL     -0.710022
     49 H21         1.7970   -3.8030   -0.5550 hn        1 MOL      0.126843
     50 H22         3.1580   -6.2410   -1.4150 h1        1 MOL      0.134916
     51 H23         2.2940   -5.3010   -3.4980 hc        1 MOL      0.004156
     52 H24         3.9590   -5.2040   -3.4100 hc        1 MOL      0.004156
     53 N5          3.9180   -4.2110    0.5360 n         1 MOL     -0.132726
     54 C17         4.8500   -3.7860    1.5360 c3        1 MOL     -0.263188
     55 C18         5.7670   -2.6280    1.1790 c         1 MOL      0.640075
     56 O9          6.7740   -2.4070    1.8130 o         1 MOL     -0.599832
     57 H25         2.9790   -4.2130    0.9210 hn        1 MOL      0.178336
     58 H26         5.4740   -4.6510    1.7470 h1        1 MOL      0.116577
     59 H27         4.3330   -3.5420    2.4630 h1        1 MOL      0.116577
     60 N6          5.5780   -2.0170   -0.0040 n         1 MOL     -0.286416
     61 C19         6.5190   -1.0950   -0.6740 c3        1 MOL      0.041103
     62 C20         6.6880    0.1720    0.1580 c         1 MOL      0.260312
     63 O10         7.5250    1.0300   -0.1310 o         1 MOL     -0.471410
     64 C21         6.0220   -0.8080   -2.0940 c3        1 MOL     -0.438483
     65 C22         5.0330    0.3110   -2.3980 c         1 MOL      0.853231
     66 N7          5.3120    1.2010   -3.2930 n         1 MOL     -0.792606
     67 O11         3.9850    0.3980   -1.8140 o         1 MOL     -0.761843
     68 H28         4.8850   -2.4700   -0.5800 hn        1 MOL      0.167018
     69 H29         7.4690   -1.6210   -0.7690 h1        1 MOL      0.137077
     70 H30         5.6980   -1.7070   -2.6220 hc        1 MOL      0.148276
     71 H31         6.8920   -0.6050   -2.7110 hc        1 MOL      0.148276
     72 H32         6.1920    1.2100   -3.7890 hn        1 MOL      0.379270
     73 H33         4.5730    1.8880   -3.3790 hn        1 MOL      0.379270
     74 N8          5.9510    0.3570    1.2830 n         1 MOL      0.015828
     75 C23         6.1070    1.4830    2.2370 c3        1 MOL     -0.344026
     76 C24         5.1640    2.6330    2.1430 c         1 MOL      0.618959
     77 O12         5.2390    3.7000    2.8320 o         1 MOL     -0.594065
     78 H34         5.2410   -0.2960    1.5920 hn        1 MOL      0.221646
     79 H35         7.1190    1.8370    2.0800 h1        1 MOL      0.137052
     80 H36         5.9540    1.1420    3.2610 h1        1 MOL      0.137052
     81 N9          4.1350    2.4860    1.2860 n         1 MOL     -0.228167
     82 C25         3.0600    3.4750    0.9500 c3        1 MOL      0.094750
     83 C26         1.7310    2.7770    0.7300 c         1 MOL      0.350596
     84 O13         1.7060    1.7540    0.1980 o         1 MOL     -0.421220
     85 C27         3.4470    4.1380   -0.3570 c3        1 MOL      0.353316
     86 C28         4.7890    5.0110   -0.4640 ca        1 MOL     -0.349951
     87 C29         5.9940    4.3490   -0.8100 ca        1 MOL      0.074582
     88 C30         4.8350    6.3320   -0.0450 ca        1 MOL      0.074582
     89 C31         7.2410    5.0410   -0.8240 ca        1 MOL     -0.409922
     90 C32         6.0390    7.0820   -0.1200 ca        1 MOL     -0.409922
     91 C33         7.1910    6.4210   -0.5240 ca        1 MOL      0.485858
     92 O14         8.3500    7.1190   -0.4880 oh        1 MOL     -0.503449
     93 H37         3.9600    1.5780    0.8820 hn        1 MOL      0.139829
     94 H38         2.8430    4.2240    1.7230 h1        1 MOL      0.017639
     95 H39         2.6120    4.8120   -0.5590 hc        1 MOL     -0.084824
     96 H40         3.5340    3.3760   -1.1300 hc        1 MOL     -0.084824
     97 H41         5.9040    3.3200   -1.1280 ha        1 MOL      0.071205
     98 H42         3.9230    6.7750    0.3250 ha        1 MOL      0.071205
     99 H43         8.1750    4.5090   -0.8710 ha        1 MOL      0.180890
    100 H44         6.1610    8.0910    0.2370 ha        1 MOL      0.180890
    101 H45         8.2800    8.0590   -0.2800 ho        1 MOL      0.347798
    102 N10         0.5620    3.3370    1.1370 n         1 MOL     -0.423995
    103 C34        -0.7930    2.6450    0.8090 c3        1 MOL     -0.030286
    104 C35        -1.7910    3.6680    0.3080 c         1 MOL      0.495294
    105 O15        -1.9200    4.6980    0.9530 o         1 MOL     -0.528759
    106 C36        -1.3040    1.8140    1.9980 c3        1 MOL     -0.081550
    107 C37        -1.7440    2.6490    3.2580 c3        1 MOL     -0.152223
    108 C38        -0.3090    0.7750    2.3710 c3        1 MOL      0.067561
    109 C39        -2.5080    1.8190    4.2720 c3        1 MOL     -0.100712
    110 H46         0.5650    4.1400    1.7460 hn        1 MOL      0.315168
    111 H47        -0.6440    1.9030    0.0210 h1        1 MOL      0.083123
    112 H48        -2.1720    1.2790    1.6070 hc        1 MOL      0.028203
    113 H49        -2.4480    3.4240    2.9540 hc        1 MOL      0.071729
    114 H50        -0.9490    3.2270    3.7280 hc        1 MOL      0.071729
    115 H51         0.5380    1.2750    2.8420 hc        1 MOL      0.020554
    116 H52        -0.7420    0.1090    3.1160 hc        1 MOL      0.020554
    117 H53         0.0690    0.2310    1.5010 hc        1 MOL      0.020554
    118 H54        -1.8030    1.0610    4.6350 hc        1 MOL      0.031680
    119 H55        -2.8400    2.4270    5.1210 hc        1 MOL      0.031680
    120 H56        -3.4340    1.3660    3.9210 hc        1 MOL      0.031680
    121 N11        -2.3890    3.3460   -0.7960 n         1 MOL     -0.345795
    122 C40        -3.5860    4.0670   -1.2620 c3        1 MOL      0.040180
    123 C41        -4.8320    3.8800   -0.3760 c         1 MOL      0.364727
    124 O16        -4.8270    3.0010    0.4670 o         1 MOL     -0.311528
    125 C42        -3.8020    3.6340   -2.7280 c3        1 MOL     -0.138878
    126 O17        -3.9500    2.2250   -2.9960 oh        1 MOL     -0.480837
    127 H57        -2.3160    2.4170   -1.1890 hn        1 MOL      0.261684
    128 H58        -3.3600    5.1360   -1.2510 h1        1 MOL      0.082223
    129 H59        -2.9560    4.0310   -3.2940 h1        1 MOL      0.097551
    130 H60        -4.7080    4.1360   -3.0510 h1        1 MOL      0.097551
    131 H61        -3.2980    1.9390   -3.6360 ho        1 MOL      0.410364
    132 N12        -5.9010    4.5790   -0.7680 n         1 MOL     -0.352813
    133 C43        -7.2340    4.5150   -0.1330 c3        1 MOL      0.100303
    134 C44        -7.8500    3.1720   -0.4240 c         1 MOL      0.505119
    135 O18        -8.5200    2.6270    0.4750 o         1 MOL     -0.507373
    136 C45        -8.1110    5.6940   -0.6060 c3        1 MOL     -0.256596
    137 H62        -5.8110    5.2720   -1.4950 hn        1 MOL      0.253592
    138 H63        -7.1270    4.6860    0.9310 h1        1 MOL      0.087789
    139 H64        -7.5290    6.6130   -0.5460 hc        1 MOL      0.084193
    140 H65        -8.5440    5.5230   -1.5890 hc        1 MOL      0.084193
    141 H66        -8.9450    5.7150    0.1000 hc        1 MOL      0.084193
    142 N13        -7.6230    2.6500   -1.6480 n         1 MOL     -0.443141
    143 C46        -8.0480    1.3680   -2.0700 c3        1 MOL      0.207659
    144 C47        -7.3060    0.2390   -1.2350 c         1 MOL      0.361111
    145 O19        -7.9990   -0.6290   -0.6780 o         1 MOL     -0.511550
    146 C48        -7.9380    1.2060   -3.6210 c3        1 MOL     -0.288948
    147 H67        -7.1010    3.1910   -2.3230 hn        1 MOL      0.291526
    148 H68        -9.0700    1.0790   -1.8480 h1        1 MOL      0.057596
    149 H69        -6.9320    1.4730   -3.9710 hc        1 MOL      0.076570
    150 H70        -8.0620    0.1510   -3.8390 hc        1 MOL      0.076570
    151 H71        -8.6860    1.8190   -4.1310 hc        1 MOL      0.076570
    152 N14        -5.9810    0.2610   -0.9780 n         1 MOL     -0.137318
    153 C49        -5.3750   -0.7090   -0.0870 c3        1 MOL     -0.252657
    154 C50        -5.9650   -0.6140    1.4120 c         1 MOL      0.463737
    155 O20        -6.1870   -1.5700    2.0990 o         1 MOL     -0.552879
    156 C51        -3.8580   -0.5590   -0.0490 c3        1 MOL      0.095535
    157 C52        -3.2030   -1.0460   -1.2620 c3        1 MOL     -0.044356
    158 C53        -1.6990   -0.7450   -1.1200 c         1 MOL      0.719705
    159 O21        -0.9230   -1.6210   -0.6190 o         1 MOL     -0.728186
    160 O22        -1.1210    0.2790   -1.6510 o         1 MOL     -0.728186
    161 H72        -5.3840    0.9930   -1.3420 hn        1 MOL      0.106672
    162 H73        -5.6530   -1.6770   -0.5120 h1        1 MOL      0.119122
    163 H74        -3.4650   -0.9980    0.8660 hc        1 MOL      0.035958
    164 H75        -3.6320    0.5080    0.0550 hc        1 MOL      0.035958
    165 H76        -3.5430   -0.3860   -2.0700 hc        1 MOL     -0.024736
    166 H77        -3.4300   -2.0880   -1.5060 hc        1 MOL     -0.024736
    167 N15        -6.0030    0.5660    1.9350 n         1 MOL      0.101850
    168 C54        -6.4300    0.8620    3.2520 c3        1 MOL     -0.331726
    169 H78        -7.4010    0.4010    3.4310 h1        1 MOL      0.116192
    170 H79        -5.7050    0.4710    3.9650 h1        1 MOL      0.116192
    171 H80        -6.5130    1.9420    3.3730 h1        1 MOL      0.116192
    172 H81        -5.8740    1.3820    1.3540 hn        1 MOL      0.021892
    173 Ca1         1.4830   -0.3230   -1.4500 Ca        1 MOL      1.770246
    174 O23         1.3800    1.8140   -3.1250 oh        1 MOL     -0.829224
    175 H82         1.7630    1.8820   -4.0000 ho        1 MOL      0.399742
    176 H83         1.3560    2.7260   -2.8020 ho        1 MOL      0.399742
    177 O24         0.6960   -1.5180   -3.7290 oh        1 MOL     -0.829224
    178 H84         1.4890   -1.9830   -3.9990 ho        1 MOL      0.399742
    179 H85         0.0410   -1.7370   -4.4000 ho        1 MOL      0.399742
@<TRIPOS>BOND
     1    1    2 1   
     2    1    4 1   
     3    1    5 1   
     4    1    6 1   
     5    2    3 2   
     6    2    7 1   
     7    7    8 1   
     8    7   15 1   
     9    8    9 1   
    10    8   11 1   
    11    8   16 1   
    12    9   10 2   
    13    9   19 1   
    14   11   12 1   
    15   11   17 1   
    16   11   18 1   
    17   12   13 1   
    18   12   14 1   
    19   19   20 1   
    20   19   28 1   
    21   20   21 1   
    22   20   23 1   
    23   20   29 1   
    24   21   22 2   
    25   21   41 1   
    26   23   24 1   
    27   23   30 1   
    28   23   31 1   
    29   24   25 1   
    30   24   32 1   
    31   24   33 1   
    32   25   26 1   
    33   25   34 1   
    34   25   35 1   
    35   26   27 1   
    36   26   36 1   
    37   26   37 1   
    38   27   38 1   
    39   27   39 1   
    40   27   40 1   
    41   41   42 1   
    42   41   49 1   
    43   42   43 1   
    44   42   45 1   
    45   42   50 1   
    46   43   44 2   
    47   43   53 1   
    48   45   46 1   
    49   45   51 1   
    50   45   52 1   
    51   46   47 1   
    52   46   48 1   
    53   53   54 1   
    54   53   57 1   
    55   54   55 1   
    56   54   58 1   
    57   54   59 1   
    58   55   56 2   
    59   55   60 1   
    60   60   61 1   
    61   60   68 1   
    62   61   62 1   
    63   61   64 1   
    64   61   69 1   
    65   62   63 2   
    66   62   74 1   
    67   64   65 1   
    68   64   70 1   
    69   64   71 1   
    70   65   66 1   
    71   65   67 2   
    72   66   72 1   
    73   66   73 1   
    74   74   75 1   
    75   74   78 1   
    76   75   76 1   
    77   75   79 1   
    78   75   80 1   
    79   76   77 2   
    80   76   81 1   
    81   81   82 1   
    82   81   93 1   
    83   82   83 1   
    84   82   85 1   
    85   82   94 1   
    86   83   84 2   
    87   83  102 1   
    88   85   86 1   
    89   85   95 1   
    90   85   96 1   
    91   86   87 ar  
    92   86   88 ar  
    93   87   89 ar  
    94   87   97 1   
    95   88   90 ar  
    96   88   98 1   
    97   89   91 ar  
    98   89   99 1   
    99   90   91 ar  
   100   90  100 1   
   101   91   92 1   
   102   92  101 1   
   103  102  103 1   
   104  102  110 1   
   105  103  104 1   
   106  103  106 1   
   107  103  111 1   
   108  104  105 2   
   109  104  121 1   
   110  106  107 1   
   111  106  108 1   
   112  106  112 1   
   113  107  109 1   
   114  107  113 1   
   115  107  114 1   
   116  108  115 1   
   117  108  116 1   
   118  108  117 1   
   119  109  118 1   
   120  109  119 1   
   121  109  120 1   
   122  121  122 1   
   123  121  127 1   
   124  122  123 1   
   125  122  125 1   
   126  122  128 1   
   127  123  124 2   
   128  123  132 1   
   129  125  126 1   
   130  125  129 1   
   131  125  130 1   
   132  126  131 1   
   133  132  133 1   
   134  132  137 1   
   135  133  134 1   
   136  133  136 1   
   137  133  138 1   
   138  134  135 2   
   139  134  142 1   
   140  136  139 1   
   141  136  140 1   
   142  136  141 1   
   143  142  143 1   
   144  142  147 1   
   145  143  144 1   
   146  143  146 1   
   147  143  148 1   
   148  144  145 2   
   149  144  152 1   
   150  146  149 1   
   151  146  150 1   
   152  146  151 1   
   153  152  153 1   
   154  152  161 1   
   155  153  154 1   
   156  153  156 1   
   157  153  162 1   
   158  154  155 2   
   159  154  167 1   
   160  156  157 1   
   161  156  163 1   
   162  156  164 1   
   163  157  158 1   
   164  157  165 1   
   165  157  166 1   
   166  158  159 1   
   167  158  160 1   
   168  167  168 1   
   169  167  172 1   
   170  168  169 1   
   171  168  170 1   
   172  168  171 1   
   173  174  175 1   
   174  174  176 1   
   175  177  178 1   
   176  177  179 1   
@<TRIPOS>SUBSTRUCTURE
     1 MOL         1 TEMP              0 ****  ****    0 ROOT
