@<TRIPOS>MOLECULE
MOL
  175   173     1     0     0
SMALL
resp


@<TRIPOS>ATOM
      1 C1          0.6140    4.4480    5.4550 c3        1 MOL     -0.397801
      2 C2         -0.0440    4.3580    4.0950 c         1 MOL      0.753955
      3 O1          0.6770    4.4940    3.1260 o         1 MOL     -0.578973
      4 H1          1.2020    3.5480    5.6330 hc        1 MOL      0.088875
      5 H2          1.2670    5.3210    5.4860 hc        1 MOL      0.088875
      6 H3         -0.1520    4.5400    6.2240 hc        1 MOL      0.088875
      7 N1         -1.2890    4.0030    4.0030 n         1 MOL     -0.656924
      8 C3         -1.9750    3.6890    2.7060 c3        1 MOL      0.182711
      9 C4         -2.2260    4.7960    1.6750 c         1 MOL      0.575501
     10 O2         -2.3420    5.9460    2.0580 o         1 MOL     -0.596264
     11 C5         -3.2940    3.0040    2.8960 c3        1 MOL     -0.140001
     12 C6         -4.0410    2.7360    1.5860 c         1 MOL      0.591757
     13 O3         -5.2190    3.2670    1.3560 o         1 MOL     -0.643192
     14 O4         -3.4530    2.1350    0.6600 o         1 MOL     -0.643192
     15 H4         -1.7910    3.9610    4.8810 hn        1 MOL      0.331827
     16 H5         -1.2930    3.0060    2.2080 h1        1 MOL      0.083173
     17 H6         -3.9810    3.6490    3.4540 hc        1 MOL      0.008215
     18 H7         -3.1950    2.1590    3.5790 hc        1 MOL      0.008215
     19 N2         -2.0800    4.5730    0.3970 n         1 MOL     -0.500821
     20 C7         -2.2910    5.4280   -0.7560 c3        1 MOL      0.354935
     21 C8         -3.3290    4.8780   -1.7900 c         1 MOL      0.540000
     22 O5         -3.4030    5.5240   -2.8140 o         1 MOL     -0.604160
     23 C9         -0.9200    5.7730   -1.3250 c3        1 MOL     -0.228345
     24 H8         -1.6630    3.6710    0.2150 hn        1 MOL      0.244687
     25 H9         -2.7160    6.3740   -0.4270 h1        1 MOL     -0.006405
     26 H10        -1.0300    6.5250   -2.0960 hc        1 MOL      0.048045
     27 H11        -0.3200    6.2590   -0.5550 hc        1 MOL      0.048045
     28 H12        -0.3320    4.9010   -1.6370 hc        1 MOL      0.048045
     29 N3         -4.1170    3.8490   -1.5670 n         1 MOL     -0.512354
     30 C10        -4.9550    3.3440   -2.6800 c3        1 MOL      0.147839
     31 C11        -6.1730    2.5740   -2.2540 c         1 MOL      0.347090
     32 O6         -7.1130    2.3690   -2.9730 o         1 MOL     -0.559627
     33 C12        -4.0430    2.4520   -3.5630 c3        1 MOL     -0.246684
     34 C13        -3.2980    1.4050   -2.7020 c         1 MOL      0.767438
     35 O7         -3.9460    0.7110   -1.9010 o         1 MOL     -0.721042
     36 O8         -2.0910    1.2760   -2.6990 o         1 MOL     -0.721042
     37 H13        -3.9720    3.2480   -0.7730 hn        1 MOL      0.320781
     38 H14        -5.2480    4.1930   -3.3000 h1        1 MOL      0.082054
     39 H15        -3.1660    2.9410   -3.9680 hc        1 MOL      0.055189
     40 H16        -4.6650    2.0200   -4.3590 hc        1 MOL      0.055189
     41 N4         -6.2700    2.1350   -1.0090 n         1 MOL      0.024466
     42 C14        -7.3350    1.3220   -0.4470 c3        1 MOL     -0.314978
     43 C15        -7.3700   -0.1480   -0.8950 c         1 MOL      0.572132
     44 O9         -8.4620   -0.7700   -0.8400 o         1 MOL     -0.643446
     45 H17        -5.5230    2.2960   -0.3450 hn        1 MOL      0.046686
     46 H18        -8.2720    1.7730   -0.7700 h1        1 MOL      0.123961
     47 H19        -7.2640    1.2660    0.6380 h1        1 MOL      0.123961
     48 N5         -6.2630   -0.7610   -1.2770 n         1 MOL     -0.267028
     49 C16        -6.2390   -2.1050   -1.9460 c3        1 MOL     -0.016900
     50 C17        -6.1860   -3.3010   -0.9920 c         1 MOL      0.451970
     51 O10        -6.0850   -4.3960   -1.5340 o         1 MOL     -0.508537
     52 C18        -5.1370   -2.0950   -3.0180 c3        1 MOL     -0.046360
     53 C19        -3.7150   -2.1600   -2.4700 c         1 MOL      0.498319
     54 N6         -2.7290   -2.1130   -3.2610 n         1 MOL     -0.642157
     55 O11        -3.4920   -2.1350   -1.2450 o         1 MOL     -0.427738
     56 H20        -5.5130   -0.1380   -1.5150 hn        1 MOL      0.220753
     57 H21        -7.1460   -2.2860   -2.5250 h1        1 MOL      0.092469
     58 H22        -5.1270   -1.1690   -3.5960 hc        1 MOL      0.025869
     59 H23        -5.2330   -2.8630   -3.7920 hc        1 MOL      0.025869
     60 H24        -2.8420   -2.3130   -4.2430 hn        1 MOL      0.324049
     61 H25        -1.7950   -1.9990   -2.8930 hn        1 MOL      0.324049
     62 N7         -6.1920   -3.0170    0.3440 n         1 MOL     -0.206697
     63 C20        -6.2510   -4.1030    1.3100 c3        1 MOL     -0.267853
     64 C21        -4.9640   -4.7140    1.7470 c         1 MOL      0.531956
     65 O12        -5.0120   -5.7220    2.4740 o         1 MOL     -0.563008
     66 H26        -6.3740   -2.1030    0.7430 hn        1 MOL      0.239046
     67 H27        -6.8780   -4.8930    0.8820 h1        1 MOL      0.120106
     68 H28        -6.6540   -3.8010    2.2780 h1        1 MOL      0.120106
     69 N8         -3.7830   -4.2050    1.2680 n         1 MOL     -0.248720
     70 C22        -2.4070   -4.6400    1.5130 c3        1 MOL     -0.130476
     71 C23        -1.3870   -3.4030    1.5160 c         1 MOL      0.304823
     72 O13        -1.5910   -2.4440    0.8170 o         1 MOL     -0.363416
     73 C24        -1.8640   -5.5830    0.4060 c3        1 MOL      0.489687
     74 C25        -2.8920   -6.6730    0.2870 c3        1 MOL     -0.556995
     75 O14        -1.8220   -4.9160   -0.8660 oh        1 MOL     -0.580590
     76 H29        -3.8020   -3.4700    0.5800 hn        1 MOL      0.148788
     77 H30        -2.4090   -5.1960    2.4500 h1        1 MOL      0.083171
     78 H31        -0.8790   -5.9500    0.6810 h1        1 MOL     -0.034728
     79 H32        -1.1920   -4.1970   -0.8360 ho        1 MOL      0.339072
     80 H33        -2.5700   -7.3060   -0.5370 hc        1 MOL      0.146403
     81 H34        -2.9610   -7.2220    1.2250 hc        1 MOL      0.146403
     82 H35        -3.8920   -6.3140    0.0700 hc        1 MOL      0.146403
     83 N9         -0.2840   -3.4880    2.2760 n         1 MOL     -0.333433
     84 C26         0.9030   -2.6750    2.2230 c3        1 MOL      0.042166
     85 C27         1.6240   -3.0400    0.8640 c         1 MOL      0.548517
     86 O15         2.0910   -4.1420    0.6940 o         1 MOL     -0.590329
     87 C28         1.7570   -2.8210    3.4490 c3        1 MOL      0.073005
     88 C29         1.1870   -1.9510    4.6020 c3        1 MOL      0.078659
     89 C30         3.2700   -2.6620    3.2020 c3        1 MOL     -0.231641
     90 C31         1.5610   -2.3400    6.0490 c3        1 MOL     -0.113005
     91 H36        -0.1780   -4.3170    2.8450 hn        1 MOL      0.229057
     92 H37         0.6460   -1.6190    2.0960 h1        1 MOL     -0.070658
     93 H38         1.6480   -3.8460    3.8010 hc        1 MOL     -0.007343
     94 H39         0.1110   -1.8370    4.5050 hc        1 MOL     -0.005267
     95 H40         1.6170   -0.9580    4.4400 hc        1 MOL     -0.005267
     96 H41         3.6070   -3.4150    2.4830 hc        1 MOL      0.060823
     97 H42         3.3850   -1.6580    2.8040 hc        1 MOL      0.060823
     98 H43         3.8460   -2.7080    4.1240 hc        1 MOL      0.060823
     99 H44         0.9780   -3.2340    6.2730 hc        1 MOL      0.017804
    100 H45         2.6330   -2.4830    6.2030 hc        1 MOL      0.017804
    101 H46         1.2190   -1.5490    6.7130 hc        1 MOL      0.017804
    102 N10         1.6420   -2.0590   -0.0160 n         1 MOL     -0.336413
    103 C32         2.5380   -2.1370   -1.2420 c3        1 MOL      0.152900
    104 C33         4.0070   -1.6870   -0.9260 c         1 MOL      0.342400
    105 O16         4.1850   -1.1540    0.1930 o         1 MOL     -0.311791
    106 C34         1.8800   -1.2270   -2.3190 c3        1 MOL     -0.243483
    107 C35         0.4080   -1.5450   -2.5970 c         1 MOL      0.735486
    108 O17        -0.4980   -1.0940   -1.8510 o         1 MOL     -0.671519
    109 O18         0.2410   -2.2830   -3.5860 o         1 MOL     -0.671519
    110 H47         1.3000   -1.1620    0.3020 hn        1 MOL      0.260585
    111 H48         2.5210   -3.1460   -1.6560 h1        1 MOL      0.050948
    112 H49         2.4350   -1.4270   -3.2350 hc        1 MOL      0.043806
    113 H50         1.9400   -0.2100   -1.9320 hc        1 MOL      0.043806
    114 N11         4.9560   -1.7790   -1.8250 n         1 MOL     -0.582232
    115 C36         6.3450   -1.4890   -1.4680 c3        1 MOL      0.312326
    116 C37         6.6040    0.0150   -1.2390 c         1 MOL      0.336083
    117 O19         7.2590    0.3790   -0.2090 o         1 MOL     -0.473803
    118 C38         7.3210   -2.0180   -2.5290 c3        1 MOL     -0.233095
    119 C39         8.7450   -1.7320   -2.1080 ca        1 MOL      0.147598
    120 C40         9.3410   -2.2790   -0.9610 ca        1 MOL     -0.235355
    121 C41         9.5170   -0.8470   -2.9590 ca        1 MOL     -0.235355
    122 C42        10.6910   -1.9920   -0.6520 ca        1 MOL     -0.039339
    123 C43        10.8840   -0.5900   -2.6990 ca        1 MOL     -0.039339
    124 C44        11.4510   -1.1430   -1.5220 ca        1 MOL     -0.191485
    125 H51         4.7730   -2.0790   -2.7770 hn        1 MOL      0.340451
    126 H52         6.6850   -2.0760   -0.6120 h1        1 MOL      0.089401
    127 H53         7.0660   -1.5030   -3.4500 hc        1 MOL      0.069905
    128 H54         7.1980   -3.0730   -2.7990 hc        1 MOL      0.069905
    129 H55         8.8470   -2.9120   -0.2410 ha        1 MOL      0.137254
    130 H56         9.1100   -0.4410   -3.8710 ha        1 MOL      0.137254
    131 H57        11.2380   -2.3990    0.1800 ha        1 MOL      0.100731
    132 H58        11.4290   -0.0320   -3.4410 ha        1 MOL      0.100731
    133 H59        12.4640   -0.8940   -1.2570 ha        1 MOL      0.117820
    134 N12         6.0430    1.0000   -1.9650 n         1 MOL     -0.150340
    135 C45         6.1830    2.4400   -1.6750 c3        1 MOL      0.047016
    136 C46         5.6030    2.7740   -0.3060 c         1 MOL      0.275686
    137 O20         5.9410    3.7760    0.3150 o         1 MOL     -0.502189
    138 C47         5.3990    3.2030   -2.7350 c3        1 MOL     -0.060740
    139 C48         5.0750    2.1580   -3.8620 c3        1 MOL     -0.042602
    140 C49         5.2190    0.8560   -3.1210 c3        1 MOL     -0.001484
    141 H60         7.2180    2.7700   -1.6930 h1        1 MOL      0.075288
    142 H61         4.4290    3.5150   -2.3540 hc        1 MOL      0.049466
    143 H62         5.8830    4.1130   -3.0960 hc        1 MOL      0.049466
    144 H63         4.0720    2.2100   -4.2930 hc        1 MOL      0.034193
    145 H64         5.7550    2.2560   -4.7150 hc        1 MOL      0.034193
    146 H65         4.2270    0.5560   -2.8050 h1        1 MOL      0.025009
    147 H66         5.6320    0.1300   -3.8320 h1        1 MOL      0.025009
    148 N13         4.7860    1.8920    0.2980 n         1 MOL     -0.089299
    149 C50         4.1560    2.0770    1.6160 c3        1 MOL     -0.094616
    150 C51         4.9020    1.3490    2.7470 c         1 MOL      0.496242
    151 O21         4.9300    1.8670    3.8850 o         1 MOL     -0.570160
    152 C52         2.7110    1.5450    1.5190 c3        1 MOL      0.056421
    153 C53         1.8280    2.1270    0.4090 c3        1 MOL     -0.085754
    154 C54         0.4780    1.4100    0.4250 c         1 MOL      0.442334
    155 O22         0.2910    0.2510    0.8800 o         1 MOL     -0.577857
    156 O23        -0.5270    2.1210    0.1310 o         1 MOL     -0.577857
    157 H67         4.4580    1.0960   -0.2300 hn        1 MOL      0.219375
    158 H68         4.0690    3.1240    1.9010 h1        1 MOL      0.097904
    159 H69         2.3200    1.6240    2.5390 hc        1 MOL      0.019665
    160 H70         2.8810    0.4930    1.2810 hc        1 MOL      0.019665
    161 H71         2.2590    2.0070   -0.5750 hc        1 MOL      0.063393
    162 H72         1.7240    3.2030    0.5560 hc        1 MOL      0.063393
    163 N14         5.5660    0.2360    2.3960 n         1 MOL     -0.017248
    164 C55         6.4770   -0.4960    3.2450 c3        1 MOL     -0.304173
    165 H73         6.6200   -1.4990    2.8430 h1        1 MOL      0.105346
    166 H74         7.4350    0.0210    3.2810 h1        1 MOL      0.105346
    167 H75         6.0610   -0.5640    4.2500 h1        1 MOL      0.105346
    168 H76         5.3100   -0.0900    1.4810 hn        1 MOL     -0.051343
    169 Ca1        -2.1880   -0.1030   -0.2170 Ca        1 MOL      1.671039
    170 O24        -4.1300   -0.8060    1.4820 oh        1 MOL     -0.851901
    171 H77        -3.6540   -0.4840    2.2360 ho        1 MOL      0.404571
    172 H78        -4.9780   -1.0810    1.8270 ho        1 MOL      0.404571
    173 O25        -1.7480    0.1840    2.5050 oh        1 MOL     -0.851901
    174 H79        -0.8670    0.1920    2.1510 ho        1 MOL      0.404571
    175 H80        -1.6320    0.2620    3.4470 ho        1 MOL      0.404571
@<TRIPOS>BOND
     1    1    2 1   
     2    1    4 1   
     3    1    5 1   
     4    1    6 1   
     5    2    3 2   
     6    2    7 1   
     7    7    8 1   
     8    7   15 1   
     9    8    9 1   
    10    8   11 1   
    11    8   16 1   
    12    9   10 2   
    13    9   19 1   
    14   11   12 1   
    15   11   17 1   
    16   11   18 1   
    17   12   13 1   
    18   12   14 1   
    19   19   20 1   
    20   19   24 1   
    21   20   21 1   
    22   20   23 1   
    23   20   25 1   
    24   21   22 2   
    25   21   29 1   
    26   23   26 1   
    27   23   27 1   
    28   23   28 1   
    29   29   30 1   
    30   29   37 1   
    31   30   31 1   
    32   30   33 1   
    33   30   38 1   
    34   31   32 2   
    35   31   41 1   
    36   33   34 1   
    37   33   39 1   
    38   33   40 1   
    39   34   35 1   
    40   34   36 1   
    41   41   42 1   
    42   41   45 1   
    43   42   43 1   
    44   42   46 1   
    45   42   47 1   
    46   43   44 2   
    47   43   48 1   
    48   48   49 1   
    49   48   56 1   
    50   49   50 1   
    51   49   52 1   
    52   49   57 1   
    53   50   51 2   
    54   50   62 1   
    55   52   53 1   
    56   52   58 1   
    57   52   59 1   
    58   53   54 1   
    59   53   55 2   
    60   54   60 1   
    61   54   61 1   
    62   62   63 1   
    63   62   66 1   
    64   63   64 1   
    65   63   67 1   
    66   63   68 1   
    67   64   65 2   
    68   64   69 1   
    69   69   70 1   
    70   69   76 1   
    71   70   71 1   
    72   70   73 1   
    73   70   77 1   
    74   71   72 2   
    75   71   83 1   
    76   73   74 1   
    77   73   75 1   
    78   73   78 1   
    79   74   80 1   
    80   74   81 1   
    81   74   82 1   
    82   75   79 1   
    83   83   84 1   
    84   83   91 1   
    85   84   85 1   
    86   84   87 1   
    87   84   92 1   
    88   85   86 2   
    89   85  102 1   
    90   87   88 1   
    91   87   89 1   
    92   87   93 1   
    93   88   90 1   
    94   88   94 1   
    95   88   95 1   
    96   89   96 1   
    97   89   97 1   
    98   89   98 1   
    99   90   99 1   
   100   90  100 1   
   101   90  101 1   
   102  102  103 1   
   103  102  110 1   
   104  103  104 1   
   105  103  106 1   
   106  103  111 1   
   107  104  105 2   
   108  104  114 1   
   109  106  107 1   
   110  106  112 1   
   111  106  113 1   
   112  107  108 1   
   113  107  109 1   
   114  114  115 1   
   115  114  125 1   
   116  115  116 1   
   117  115  118 1   
   118  115  126 1   
   119  116  117 2   
   120  116  134 1   
   121  118  119 1   
   122  118  127 1   
   123  118  128 1   
   124  119  120 ar  
   125  119  121 ar  
   126  120  122 ar  
   127  120  129 1   
   128  121  123 ar  
   129  121  130 1   
   130  122  124 ar  
   131  122  131 1   
   132  123  124 ar  
   133  123  132 1   
   134  124  133 1   
   135  134  135 1   
   136  134  140 1   
   137  135  136 1   
   138  135  138 1   
   139  135  141 1   
   140  136  137 2   
   141  136  148 1   
   142  138  139 1   
   143  138  142 1   
   144  138  143 1   
   145  139  140 1   
   146  139  144 1   
   147  139  145 1   
   148  140  146 1   
   149  140  147 1   
   150  148  149 1   
   151  148  157 1   
   152  149  150 1   
   153  149  152 1   
   154  149  158 1   
   155  150  151 2   
   156  150  163 1   
   157  152  153 1   
   158  152  159 1   
   159  152  160 1   
   160  153  154 1   
   161  153  161 1   
   162  153  162 1   
   163  154  155 1   
   164  154  156 1   
   165  163  164 1   
   166  163  168 1   
   167  164  165 1   
   168  164  166 1   
   169  164  167 1   
   170  170  171 1   
   171  170  172 1   
   172  173  174 1   
   173  173  175 1   
@<TRIPOS>SUBSTRUCTURE
     1 MOL         1 TEMP              0 ****  ****    0 ROOT
