@<TRIPOS>MOLECULE
MOL
  186   183     1     0     0
SMALL
resp


@<TRIPOS>ATOM
      1 C1          0.9360   -1.5450    6.5860 c3        1 MOL     -0.312008
      2 C2          1.1410   -1.6350    5.0840 c         1 MOL      0.856419
      3 O1          0.3090   -2.0330    4.2610 o         1 MOL     -0.679798
      4 H1          1.7100   -2.1210    7.0930 hc        1 MOL      0.065709
      5 H2          0.9940   -0.5030    6.9000 hc        1 MOL      0.065709
      6 H3         -0.0430   -1.9490    6.8440 hc        1 MOL      0.065709
      7 N1          2.3900   -1.4370    4.6860 n         1 MOL     -0.693139
      8 C3          2.6940   -1.5150    3.2530 c3        1 MOL      0.038151
      9 C4          2.8810   -2.9400    2.8810 c         1 MOL      0.777315
     10 O2          3.5670   -3.6580    3.5450 o         1 MOL     -0.598458
     11 C5          3.9270   -0.6440    3.0680 c3        1 MOL     -0.010020
     12 C6          4.4520   -0.5420    1.6460 c         1 MOL      0.629683
     13 O3          5.6870   -0.2010    1.6310 o         1 MOL     -0.640192
     14 O4          3.6400   -0.8320    0.6960 o         1 MOL     -0.640192
     15 H4          3.1200   -1.3230    5.3770 hn        1 MOL      0.335699
     16 H5          1.9100   -1.0170    2.6710 h1        1 MOL      0.035261
     17 H6          4.7430   -0.9950    3.7080 hc        1 MOL      0.004616
     18 H7          3.8040    0.3810    3.4370 hc        1 MOL      0.004616
     19 N2          2.1610   -3.4050    1.7950 n         1 MOL     -0.712206
     20 C7          2.1330   -4.7850    1.3960 c3        1 MOL      0.071773
     21 C8          3.1320   -5.1010    0.2490 c         1 MOL      0.476764
     22 O5          3.5780   -6.2450    0.1710 o         1 MOL     -0.600086
     23 C9          0.6460   -5.2440    1.2200 c3        1 MOL      0.071105
     24 C10        -0.3120   -4.7430    2.3410 c3        1 MOL     -0.105663
     25 C11         0.6130   -6.7960    0.9520 c3        1 MOL      0.005795
     26 C12        -1.7250   -5.2920    2.4600 c3        1 MOL     -0.114694
     27 H8          1.5750   -2.7360    1.3050 hn        1 MOL      0.368964
     28 H9          2.4540   -5.4230    2.2200 h1        1 MOL      0.060709
     29 H10         0.2690   -4.7830    0.3050 hc        1 MOL      0.030460
     30 H11        -0.4380   -3.6620    2.2060 hc        1 MOL      0.078817
     31 H12         0.0310   -4.9650    3.3520 hc        1 MOL      0.078817
     32 H13         0.7520   -7.1270   -0.0810 hc        1 MOL     -0.009796
     33 H14         1.3650   -7.2270    1.6030 hc        1 MOL     -0.009796
     34 H15        -0.3010   -7.3100    1.2360 hc        1 MOL     -0.009796
     35 H16        -2.4040   -4.6650    3.0370 hc        1 MOL      0.016021
     36 H17        -2.2280   -5.3340    1.4860 hc        1 MOL      0.016021
     37 H18        -1.6240   -6.2620    2.9490 hc        1 MOL      0.016021
     38 N3          3.4480   -4.1570   -0.6590 n         1 MOL     -0.103810
     39 C13         4.2970   -4.2880   -1.8150 c3        1 MOL     -0.132620
     40 C14         5.6710   -3.4630   -1.8450 c         1 MOL      0.412267
     41 O6          6.2820   -3.2240   -2.8810 o         1 MOL     -0.430657
     42 C15         3.4770   -4.1770   -3.0940 c3        1 MOL     -0.168549
     43 C16         3.1610   -2.7700   -3.5270 c         1 MOL      0.701022
     44 O7          2.8190   -2.5350   -4.7090 o         1 MOL     -0.683552
     45 O8          3.1340   -1.8360   -2.6160 o         1 MOL     -0.683552
     46 H19         2.9990   -3.2620   -0.5320 hn        1 MOL      0.127176
     47 H20         4.5810   -5.3400   -1.8380 h1        1 MOL      0.106115
     48 H21         2.6060   -4.7780   -2.8460 hc        1 MOL      0.053160
     49 H22         4.0350   -4.6380   -3.9100 hc        1 MOL      0.053160
     50 N4          6.1180   -3.0820   -0.6770 n         1 MOL     -0.332990
     51 C17         7.4800   -2.4990   -0.4780 c3        1 MOL     -0.045419
     52 C18         7.8000   -1.2120   -1.2490 c         1 MOL      0.398857
     53 O9          8.7200   -1.2190   -2.1310 o         1 MOL     -0.553124
     54 H23         5.5340   -3.1960    0.1390 hn        1 MOL      0.258223
     55 H24         8.2540   -3.1970   -0.8100 h1        1 MOL      0.058941
     56 H25         7.6760   -2.2940    0.5740 h1        1 MOL      0.058941
     57 N5          7.0710   -0.1260   -0.9670 n         1 MOL     -0.203755
     58 C19         7.2930    1.2130   -1.6190 c3        1 MOL      0.095202
     59 C20         7.3670    2.3470   -0.5990 c         1 MOL      0.434979
     60 O10         7.6570    3.5270   -0.9790 o         1 MOL     -0.546813
     61 C21         6.2530    1.5770   -2.6340 c3        1 MOL     -0.089204
     62 C22         4.8040    1.5160   -2.2840 c         1 MOL      0.815846
     63 O11         3.9320    1.4660   -3.1860 o         1 MOL     -0.777498
     64 O12         4.4460    1.4590   -1.0980 o         1 MOL     -0.777498
     65 H26         6.3020   -0.1430   -0.3070 hn        1 MOL      0.125870
     66 H27         8.2670    1.2620   -2.1210 h1        1 MOL      0.046951
     67 H28         6.3640    0.9020   -3.4900 hc        1 MOL      0.017915
     68 H29         6.4280    2.5990   -2.9500 hc        1 MOL      0.017915
     69 N6          7.1910    1.9740    0.7020 n         1 MOL     -0.420112
     70 C23         7.1740    2.9470    1.7690 c3        1 MOL      0.005601
     71 C24         5.7300    3.6330    1.8210 c         1 MOL      0.364489
     72 O13         5.5850    4.6320    2.5390 o         1 MOL     -0.603600
     73 H30         6.8340    1.0490    0.8750 hn        1 MOL      0.268796
     74 H31         7.9660    3.6850    1.6250 h1        1 MOL      0.076011
     75 H32         7.3680    2.4630    2.7240 h1        1 MOL      0.076011
     76 N7          4.6840    3.2320    1.1330 n         1 MOL     -0.070653
     77 C25         3.3660    4.0020    1.1450 c3        1 MOL      0.021291
     78 C26         2.1440    3.1120    1.0010 c         1 MOL      0.521994
     79 O14         2.1760    1.9970    0.5400 o         1 MOL     -0.578907
     80 C27         3.2350    5.0120   -0.1070 c3        1 MOL      0.056049
     81 C28         4.4740    5.9110   -0.3270 c3        1 MOL     -0.069726
     82 C29         4.2090    7.2120   -1.0310 c         1 MOL      0.579742
     83 N8          5.2950    7.7630   -1.5300 n         1 MOL     -0.754428
     84 O15         3.0880    7.7100   -1.1390 o         1 MOL     -0.573213
     85 H33         4.7810    2.3930    0.5870 hn        1 MOL      0.139801
     86 H34         3.3170    4.5910    2.0630 h1        1 MOL      0.055115
     87 H35         2.3600    5.6350    0.0770 hc        1 MOL     -0.007115
     88 H36         3.0720    4.4380   -1.0240 hc        1 MOL     -0.007115
     89 H37         5.2360    5.3110   -0.8260 hc        1 MOL      0.042020
     90 H38         4.8910    6.2420    0.6220 hc        1 MOL      0.042020
     91 H39         6.1570    7.2670   -1.3970 hn        1 MOL      0.348245
     92 H40         5.1030    8.6010   -2.0630 hn        1 MOL      0.348245
     93 N9          0.9460    3.6090    1.3570 n         1 MOL     -0.484197
     94 C30        -0.3400    2.8280    1.4780 c3        1 MOL      0.090321
     95 C31        -1.4860    3.4000    0.7000 c         1 MOL      0.520466
     96 O16        -1.8930    4.4870    0.9570 o         1 MOL     -0.556311
     97 C32        -0.6140    2.6900    2.9950 c3        1 MOL      0.055194
     98 C33        -2.0280    2.1350    3.2000 c3        1 MOL     -0.192691
     99 C34         0.4160    1.7960    3.6830 c3        1 MOL     -0.192691
    100 H41         0.9420    4.5880    1.6340 hn        1 MOL      0.287754
    101 H42        -0.2280    1.7880    1.1600 h1        1 MOL      0.144994
    102 H43        -0.5870    3.6850    3.4540 hc        1 MOL      0.006065
    103 H44        -2.1490    1.0790    2.9830 hc        1 MOL      0.042743
    104 H45        -2.3640    2.2040    4.2310 hc        1 MOL      0.042743
    105 H46        -2.8180    2.6220    2.6250 hc        1 MOL      0.042743
    106 H47         1.4210    2.1630    3.5070 hc        1 MOL      0.042743
    107 H48         0.1850    1.6920    4.7420 hc        1 MOL      0.042743
    108 H49         0.3650    0.8070    3.2270 hc        1 MOL      0.042743
    109 N10        -1.9170    2.5870   -0.2960 n         1 MOL     -0.311818
    110 C35        -3.1030    2.9320   -1.1060 c3        1 MOL      0.252343
    111 C36        -4.4270    2.3770   -0.5040 c         1 MOL      0.173015
    112 O17        -4.3680    1.5880    0.4480 o         1 MOL     -0.191123
    113 C37        -2.9610    2.4900   -2.6180 c3        1 MOL     -0.334984
    114 C38        -3.2470    1.0100   -2.8380 c         1 MOL      0.725993
    115 N11        -2.4190    0.1170   -2.3490 n         1 MOL     -0.852938
    116 O18        -4.3120    0.5410   -3.3130 o         1 MOL     -0.611796
    117 H50        -1.5200    1.6630   -0.4130 hn        1 MOL      0.091251
    118 H51        -3.1550    4.0180   -1.1190 h1        1 MOL      0.046436
    119 H52        -1.9510    2.8030   -2.8540 hc        1 MOL      0.088170
    120 H53        -3.7220    3.0760   -3.1360 hc        1 MOL      0.088170
    121 H54        -1.6240    0.5250   -1.8920 hn        1 MOL      0.432668
    122 H55        -2.4110   -0.8330   -2.6900 hn        1 MOL      0.432668
    123 N12        -5.6020    2.6590   -0.9890 n         1 MOL     -0.422441
    124 C39        -6.8760    2.0930   -0.4860 c3        1 MOL      0.248343
    125 C40        -6.8800    0.5860   -0.3440 c         1 MOL      0.580521
    126 O19        -7.2230    0.0570    0.7000 o         1 MOL     -0.552178
    127 C41        -8.0600    2.6390   -1.3180 c3        1 MOL     -0.173922
    128 C42        -9.4180    2.4010   -0.7540 ca        1 MOL      0.019702
    129 C43        -9.8250    2.9730    0.4330 ca        1 MOL     -0.121583
    130 C44       -10.3140    1.5720   -1.4560 ca        1 MOL     -0.121583
    131 C45       -11.1340    2.7590    0.9360 ca        1 MOL     -0.320209
    132 C46       -11.6220    1.3590   -0.9530 ca        1 MOL     -0.320209
    133 C47       -12.0470    1.8940    0.2360 ca        1 MOL      0.419650
    134 O20       -13.2600    1.5680    0.6970 oh        1 MOL     -0.522919
    135 H56        -5.6670    3.4250   -1.6290 hn        1 MOL      0.283226
    136 H57        -7.0080    2.5050    0.5200 h1        1 MOL      0.018538
    137 H58        -8.0250    2.2730   -2.3490 hc        1 MOL      0.051356
    138 H59        -7.8630    3.7080   -1.4140 hc        1 MOL      0.051356
    139 H60        -9.1670    3.5680    1.0450 ha        1 MOL      0.136908
    140 H61        -9.9630    1.0720   -2.3440 ha        1 MOL      0.136908
    141 H62       -11.3950    3.0900    1.9390 ha        1 MOL      0.149008
    142 H63       -12.3370    0.7360   -1.4750 ha        1 MOL      0.149008
    143 H64       -13.7560    0.9830    0.1190 ho        1 MOL      0.370695
    144 N13        -6.4030   -0.1640   -1.3090 n         1 MOL     -0.442478
    145 C48        -6.3160   -1.6390   -1.3310 c3        1 MOL      0.002996
    146 C49        -5.4940   -2.1180   -0.1270 c         1 MOL      0.364120
    147 O21        -5.7760   -3.1340    0.4770 o         1 MOL     -0.525384
    148 C50        -5.7700   -2.1600   -2.6740 c3        1 MOL      0.003971
    149 C51        -5.8000   -3.7190   -2.6940 c3        1 MOL     -0.264885
    150 C52        -4.9140   -4.2750   -3.7870 c         1 MOL      0.794018
    151 O22        -3.7070   -4.1710   -3.6210 o         1 MOL     -0.761599
    152 O23        -5.4340   -4.7880   -4.7800 o         1 MOL     -0.761599
    153 H65        -5.9850    0.2860   -2.1060 hn        1 MOL      0.221975
    154 H66        -7.3340   -1.9790   -1.1810 h1        1 MOL      0.101913
    155 H67        -4.7540   -1.7950   -2.8580 hc        1 MOL      0.050328
    156 H68        -6.4240   -1.8760   -3.4960 hc        1 MOL      0.050328
    157 H69        -6.8480   -3.9680   -2.8300 hc        1 MOL      0.020838
    158 H70        -5.4910   -4.1650   -1.7420 hc        1 MOL      0.020838
    159 N14        -4.4280   -1.4000    0.2840 n         1 MOL      0.075423
    160 C53        -3.5830   -1.8200    1.4170 c3        1 MOL     -0.049923
    161 C54        -4.1150   -1.3550    2.7850 c         1 MOL      0.391111
    162 O24        -4.1410   -2.1190    3.7470 o         1 MOL     -0.547343
    163 C55        -2.1300   -1.3160    1.3060 c3        1 MOL      0.271596
    164 C56        -1.4970   -2.0120    0.0140 c3        1 MOL      0.016239
    165 C57        -0.2720   -1.2150   -0.3500 c         1 MOL      0.643180
    166 O25         0.8290   -1.8380   -0.4360 o         1 MOL     -0.757003
    167 O26        -0.3210   -0.0160   -0.5530 o         1 MOL     -0.757003
    168 H71        -4.2070   -0.5660   -0.2480 hn        1 MOL     -0.106717
    169 H72        -3.6220   -2.9020    1.2830 h1        1 MOL      0.105345
    170 H73        -1.5810   -1.7050    2.1640 hc        1 MOL     -0.032011
    171 H74        -2.1100   -0.2340    1.2210 hc        1 MOL     -0.032011
    172 H75        -2.2100   -2.1180   -0.8130 hc        1 MOL      0.011369
    173 H76        -1.1250   -3.0090    0.2610 hc        1 MOL      0.011369
    174 N15        -4.7180   -0.1560    2.8020 n         1 MOL     -0.004437
    175 C58        -5.4660    0.4920    3.9190 c3        1 MOL     -0.210192
    176 H77        -5.6630   -0.2450    4.6970 h1        1 MOL      0.073623
    177 H78        -4.8700    1.3050    4.3320 h1        1 MOL      0.073623
    178 H79        -6.4110    0.8860    3.5450 h1        1 MOL      0.073623
    179 H80        -4.7140    0.3640    1.9340 hn        1 MOL     -0.006500
    180 Ca1         2.1980    0.1860   -1.2180 Ca        1 MOL      1.750463
    181 O27         1.1300    0.0960   -3.8860 oh        1 MOL     -0.808918
    182 H81         1.4000   -0.7860   -4.1370 ho        1 MOL      0.394168
    183 H82         0.4930    0.3450   -4.5540 ho        1 MOL      0.394168
    184 O28         1.5340    2.7290   -2.5580 oh        1 MOL     -0.808918
    185 H83         1.8220    2.2970   -3.3600 ho        1 MOL      0.394168
    186 H84         1.7470    3.6470   -2.6810 ho        1 MOL      0.394168
@<TRIPOS>BOND
     1    1    2 1   
     2    1    4 1   
     3    1    5 1   
     4    1    6 1   
     5    2    3 2   
     6    2    7 1   
     7    7    8 1   
     8    7   15 1   
     9    8    9 1   
    10    8   11 1   
    11    8   16 1   
    12    9   10 2   
    13    9   19 1   
    14   11   12 1   
    15   11   17 1   
    16   11   18 1   
    17   12   13 1   
    18   12   14 1   
    19   19   20 1   
    20   19   27 1   
    21   20   21 1   
    22   20   23 1   
    23   20   28 1   
    24   21   22 2   
    25   21   38 1   
    26   23   24 1   
    27   23   25 1   
    28   23   29 1   
    29   24   26 1   
    30   24   30 1   
    31   24   31 1   
    32   25   32 1   
    33   25   33 1   
    34   25   34 1   
    35   26   35 1   
    36   26   36 1   
    37   26   37 1   
    38   38   39 1   
    39   38   46 1   
    40   39   40 1   
    41   39   42 1   
    42   39   47 1   
    43   40   41 2   
    44   40   50 1   
    45   42   43 1   
    46   42   48 1   
    47   42   49 1   
    48   43   44 1   
    49   43   45 1   
    50   50   51 1   
    51   50   54 1   
    52   51   52 1   
    53   51   55 1   
    54   51   56 1   
    55   52   53 2   
    56   52   57 1   
    57   57   58 1   
    58   57   65 1   
    59   58   59 1   
    60   58   61 1   
    61   58   66 1   
    62   59   60 2   
    63   59   69 1   
    64   61   62 1   
    65   61   67 1   
    66   61   68 1   
    67   62   63 1   
    68   62   64 1   
    69   69   70 1   
    70   69   73 1   
    71   70   71 1   
    72   70   74 1   
    73   70   75 1   
    74   71   72 2   
    75   71   76 1   
    76   76   77 1   
    77   76   85 1   
    78   77   78 1   
    79   77   80 1   
    80   77   86 1   
    81   78   79 2   
    82   78   93 1   
    83   80   81 1   
    84   80   87 1   
    85   80   88 1   
    86   81   82 1   
    87   81   89 1   
    88   81   90 1   
    89   82   83 1   
    90   82   84 2   
    91   83   91 1   
    92   83   92 1   
    93   93   94 1   
    94   93  100 1   
    95   94   95 1   
    96   94   97 1   
    97   94  101 1   
    98   95   96 2   
    99   95  109 1   
   100   97   98 1   
   101   97   99 1   
   102   97  102 1   
   103   98  103 1   
   104   98  104 1   
   105   98  105 1   
   106   99  106 1   
   107   99  107 1   
   108   99  108 1   
   109  109  110 1   
   110  109  117 1   
   111  110  111 1   
   112  110  113 1   
   113  110  118 1   
   114  111  112 2   
   115  111  123 1   
   116  113  114 1   
   117  113  119 1   
   118  113  120 1   
   119  114  115 1   
   120  114  116 2   
   121  115  121 1   
   122  115  122 1   
   123  123  124 1   
   124  123  135 1   
   125  124  125 1   
   126  124  127 1   
   127  124  136 1   
   128  125  126 2   
   129  125  144 1   
   130  127  128 1   
   131  127  137 1   
   132  127  138 1   
   133  128  129 ar  
   134  128  130 ar  
   135  129  131 ar  
   136  129  139 1   
   137  130  132 ar  
   138  130  140 1   
   139  131  133 ar  
   140  131  141 1   
   141  132  133 ar  
   142  132  142 1   
   143  133  134 1   
   144  134  143 1   
   145  144  145 1   
   146  144  153 1   
   147  145  146 1   
   148  145  148 1   
   149  145  154 1   
   150  146  147 2   
   151  146  159 1   
   152  148  149 1   
   153  148  155 1   
   154  148  156 1   
   155  149  150 1   
   156  149  157 1   
   157  149  158 1   
   158  150  151 1   
   159  150  152 1   
   160  159  160 1   
   161  159  168 1   
   162  160  161 1   
   163  160  163 1   
   164  160  169 1   
   165  161  162 2   
   166  161  174 1   
   167  163  164 1   
   168  163  170 1   
   169  163  171 1   
   170  164  165 1   
   171  164  172 1   
   172  164  173 1   
   173  165  166 1   
   174  165  167 1   
   175  174  175 1   
   176  174  179 1   
   177  175  176 1   
   178  175  177 1   
   179  175  178 1   
   180  181  182 1   
   181  181  183 1   
   182  184  185 1   
   183  184  186 1   
@<TRIPOS>SUBSTRUCTURE
     1 MOL         1 TEMP              0 ****  ****    0 ROOT
