@<TRIPOS>MOLECULE
MOL
  189   185     1     0     0
SMALL
resp


@<TRIPOS>ATOM
      1 C1         -0.7400    3.5730    5.8750 c3        1 MOL     -0.350571
      2 C2         -0.9140    3.1250    4.4080 c         1 MOL      0.765755
      3 O1         -0.7950    1.9180    4.1300 o         1 MOL     -0.631440
      4 H1         -1.6970    3.9210    6.2630 hc        1 MOL      0.087906
      5 H2         -0.3900    2.7320    6.4730 hc        1 MOL      0.087906
      6 H3         -0.0110    4.3820    5.9240 hc        1 MOL      0.087906
      7 N1         -1.3060    4.0620    3.5560 n         1 MOL     -0.636416
      8 C3         -2.0340    3.7690    2.3430 c3        1 MOL      0.218432
      9 C4         -1.9880    4.9200    1.3350 c         1 MOL      0.359853
     10 O2         -1.9530    6.1360    1.6880 o         1 MOL     -0.570400
     11 C5         -3.4600    3.4360    2.7240 c3        1 MOL     -0.047599
     12 C6         -4.1960    2.8810    1.5210 c         1 MOL      0.497162
     13 O3         -3.7240    2.1030    0.6750 o         1 MOL     -0.612476
     14 O4         -5.3840    3.3080    1.3540 o         1 MOL     -0.612476
     15 H4         -1.4350    4.9960    3.9090 hn        1 MOL      0.314222
     16 H5         -1.5800    2.8940    1.8960 h1        1 MOL      0.084631
     17 H6         -4.0580    4.2560    3.1410 hc        1 MOL      0.009609
     18 H7         -3.4290    2.7140    3.5410 hc        1 MOL      0.009609
     19 N2         -2.0040    4.4860    0.1150 n         1 MOL      0.012331
     20 C7         -2.2790    5.3620   -0.9730 c3        1 MOL     -0.147517
     21 C8         -3.3880    4.8760   -1.9390 c         1 MOL      0.515466
     22 O5         -3.8380    5.6450   -2.7400 o         1 MOL     -0.582070
     23 C9         -0.9510    5.6750   -1.7720 c3        1 MOL      0.135534
     24 C10        -0.2360    4.4420   -2.4070 c3        1 MOL      0.195783
     25 C11        -0.0380    6.5150   -0.8060 c3        1 MOL     -0.304813
     26 C12         0.6460    4.6910   -3.6010 c3        1 MOL     -0.546567
     27 H8         -1.8910    3.5070   -0.0920 hn        1 MOL      0.075701
     28 H9         -2.7260    6.2720   -0.5620 h1        1 MOL      0.105377
     29 H10        -1.1930    6.3160   -2.6230 hc        1 MOL     -0.005921
     30 H11        -1.1040    3.8120   -2.6300 hc        1 MOL     -0.004753
     31 H12         0.2870    3.7830   -1.7150 hc        1 MOL     -0.004753
     32 H13         0.3600    5.9220    0.0230 hc        1 MOL      0.064585
     33 H14         0.8660    6.8610   -1.2960 hc        1 MOL      0.064585
     34 H15        -0.6670    7.3530   -0.5040 hc        1 MOL      0.064585
     35 H16         0.0330    4.9700   -4.4490 hc        1 MOL      0.137031
     36 H17         1.4370    5.4050   -3.3820 hc        1 MOL      0.137031
     37 H18         1.2340    3.7880   -3.7540 hc        1 MOL      0.137031
     38 N3         -3.8950    3.6390   -1.7990 n         1 MOL     -0.260570
     39 C13        -4.7610    3.0600   -2.8490 c3        1 MOL     -0.017922
     40 C14        -6.0690    2.3400   -2.3850 c         1 MOL      0.330043
     41 O6         -6.7930    1.8150   -3.2300 o         1 MOL     -0.520519
     42 C15        -3.9840    2.1890   -3.8160 c3        1 MOL     -0.022543
     43 C16        -3.0570    1.2020   -3.1830 c         1 MOL      0.761884
     44 O7         -3.2540    0.7860   -2.0740 o         1 MOL     -0.756691
     45 O8         -2.1100    0.6980   -3.8640 o         1 MOL     -0.756691
     46 H19        -3.6700    3.0540   -1.0120 hn        1 MOL      0.161829
     47 H20        -5.1510    3.8560   -3.4780 h1        1 MOL      0.090753
     48 H21        -3.3970    2.7780   -4.5310 hc        1 MOL     -0.000864
     49 H22        -4.7310    1.7010   -4.4440 hc        1 MOL     -0.000864
     50 N4         -6.3480    2.3260   -1.1040 n         1 MOL     -0.076926
     51 C17        -7.4690    1.6840   -0.5340 c3        1 MOL     -0.151188
     52 C18        -7.7080    0.2030   -0.7820 c         1 MOL      0.469980
     53 O9         -8.8710   -0.2000   -0.8260 o         1 MOL     -0.583568
     54 H23        -5.6910    2.7350   -0.4510 hn        1 MOL      0.111050
     55 H24        -8.3910    2.1150   -0.9340 h1        1 MOL      0.070888
     56 H25        -7.3560    1.8270    0.5340 h1        1 MOL      0.070888
     57 N5         -6.6430   -0.5640   -1.2120 n         1 MOL     -0.083460
     58 C19        -6.7370   -1.9320   -1.7600 c3        1 MOL     -0.210762
     59 C20        -6.7750   -3.0340   -0.6650 c         1 MOL      0.399167
     60 O10        -6.7310   -4.2390   -0.9340 o         1 MOL     -0.494724
     61 C21        -5.5470   -2.2180   -2.7530 c3        1 MOL     -0.243120
     62 C22        -4.2340   -2.2260   -2.1010 c         1 MOL      0.746162
     63 O11        -4.0060   -1.8980   -0.9020 o         1 MOL     -0.666652
     64 O12        -3.3590   -2.5520   -2.9100 o         1 MOL     -0.666652
     65 H26        -5.7730   -0.0610   -1.2540 hn        1 MOL      0.213966
     66 H27        -7.6590   -1.9770   -2.3400 h1        1 MOL      0.145920
     67 H28        -5.6280   -1.3590   -3.4080 hc        1 MOL      0.097463
     68 H29        -5.6120   -3.1730   -3.2850 hc        1 MOL      0.097463
     69 N6         -6.6930   -2.6390    0.6350 n         1 MOL     -0.142873
     70 C23        -6.6530   -3.5100    1.7600 c3        1 MOL     -0.193685
     71 C24        -5.3810   -4.3460    1.9240 c         1 MOL      0.663099
     72 O13        -5.4440   -5.3860    2.5250 o         1 MOL     -0.601333
     73 H30        -6.7370   -1.6340    0.7260 hn        1 MOL      0.120095
     74 H31        -7.5200   -4.1670    1.8490 h1        1 MOL      0.075985
     75 H32        -6.5910   -2.9760    2.7050 h1        1 MOL      0.075985
     76 N7         -4.2200   -3.8780    1.5230 n         1 MOL     -0.559650
     77 C25        -2.8830   -4.4980    1.7230 c3        1 MOL      0.218123
     78 C26        -1.8460   -3.3680    1.7780 c         1 MOL      0.370563
     79 O14        -1.8700   -2.3870    1.0050 o         1 MOL     -0.374235
     80 C27        -2.5290   -5.5300    0.5670 c3        1 MOL     -0.304048
     81 C28        -2.9360   -5.0540   -0.8620 c3        1 MOL      0.078418
     82 C29        -2.5620   -5.9120   -2.0370 c         1 MOL      0.584308
     83 N8         -2.4990   -5.3240   -3.1960 n         1 MOL     -0.757086
     84 O15        -2.2400   -7.0720   -2.0040 o         1 MOL     -0.626749
     85 H33        -4.2540   -3.0590    0.9370 hn        1 MOL      0.353562
     86 H34        -2.8430   -5.1780    2.5840 h1        1 MOL      0.038582
     87 H35        -3.1200   -6.4010    0.8300 hc        1 MOL      0.089930
     88 H36        -1.4520   -5.7020    0.5680 hc        1 MOL      0.089930
     89 H37        -2.5150   -4.0610   -0.9870 hc        1 MOL      0.033992
     90 H38        -4.0110   -4.9050   -0.8170 hc        1 MOL      0.033992
     91 H39        -2.7570   -4.3450   -3.2420 hn        1 MOL      0.345843
     92 H40        -2.1450   -5.9010   -3.9390 hn        1 MOL      0.345843
     93 N9         -0.8660   -3.6080    2.6920 n         1 MOL     -0.634699
     94 C30         0.3720   -2.7680    2.7090 c3        1 MOL      0.177739
     95 C31         1.5490   -3.1570    1.7760 c         1 MOL      0.649040
     96 O16         2.1080   -4.2790    1.8630 o         1 MOL     -0.615028
     97 C32         0.8910   -2.5620    4.1240 c3        1 MOL      0.080925
     98 C33         1.3010   -3.8530    4.8720 c3        1 MOL     -0.167962
     99 C34         1.9770   -1.4730    4.1260 c3        1 MOL     -0.167962
    100 H41        -0.8930   -4.4990    3.1600 hn        1 MOL      0.337419
    101 H42         0.1350   -1.7630    2.3340 h1        1 MOL      0.103503
    102 H43         0.0640   -2.1400    4.6820 hc        1 MOL      0.009438
    103 H44         2.1920   -4.3880    4.5340 hc        1 MOL      0.029175
    104 H45         1.4840   -3.6950    5.9250 hc        1 MOL      0.029175
    105 H46         0.5210   -4.6170    4.8430 hc        1 MOL      0.029175
    106 H47         1.5500   -0.5570    3.7090 hc        1 MOL      0.029175
    107 H48         2.2530   -1.2440    5.1500 hc        1 MOL      0.029175
    108 H49         2.8680   -1.7610    3.5810 hc        1 MOL      0.029175
    109 N10         1.9250   -2.2200    0.8980 n         1 MOL     -0.352550
    110 C35         3.0730   -2.3230   -0.0330 c3        1 MOL      0.077985
    111 C36         4.4090   -2.0640    0.7720 c         1 MOL      0.243365
    112 O17         4.3320   -1.3570    1.7500 o         1 MOL     -0.267403
    113 C37         2.8780   -1.4370   -1.1570 c3        1 MOL     -0.162147
    114 C38         3.9700   -1.4980   -2.3230 c         1 MOL      0.582022
    115 N11         4.5050   -2.6080   -2.6520 n         1 MOL     -0.681044
    116 O18         4.3740   -0.4530   -2.7660 o         1 MOL     -0.529244
    117 H50         1.2600   -1.4740    0.7240 hn        1 MOL      0.154613
    118 H51         3.1650   -3.3490   -0.4090 h1        1 MOL      0.030350
    119 H52         2.8800   -0.4100   -0.7790 hc        1 MOL      0.103275
    120 H53         1.9000   -1.6130   -1.6080 hc        1 MOL      0.103275
    121 H54         4.0740   -3.4540   -2.3280 hn        1 MOL      0.333288
    122 H55         5.3150   -2.5620   -3.2590 hn        1 MOL      0.333288
    123 N12         5.5940   -2.5130    0.3360 n         1 MOL     -0.295954
    124 C39         6.8690   -2.0140    0.9810 c3        1 MOL      0.073575
    125 C40         7.1400   -0.5010    1.0250 c         1 MOL      0.389728
    126 O19         7.7070    0.0020    2.0340 o         1 MOL     -0.535118
    127 C41         7.9990   -2.7160    0.2100 c3        1 MOL     -0.194993
    128 C42         7.8580   -2.9660   -1.2920 ca        1 MOL      0.012007
    129 C43         7.9590   -1.8810   -2.1790 ca        1 MOL     -0.121567
    130 C44         7.5650   -4.2190   -1.8020 ca        1 MOL     -0.121567
    131 C45         7.7040   -2.0470   -3.5740 ca        1 MOL     -0.279056
    132 C46         7.3530   -4.4220   -3.1910 ca        1 MOL     -0.279056
    133 C47         7.4660   -3.3410   -4.0620 ca        1 MOL      0.352678
    134 O20         7.1240   -3.7030   -5.3100 oh        1 MOL     -0.555304
    135 H56         5.6530   -3.0200   -0.5290 hn        1 MOL      0.193504
    136 H57         6.9590   -2.3210    2.0290 h1        1 MOL      0.080635
    137 H58         8.1440   -3.7170    0.5960 hc        1 MOL      0.076572
    138 H59         8.9010   -2.1610    0.4620 hc        1 MOL      0.076572
    139 H60         8.0370   -0.8960   -1.7420 ha        1 MOL      0.117067
    140 H61         7.4420   -5.0950   -1.1830 ha        1 MOL      0.117067
    141 H62         7.7090   -1.2240   -4.2580 ha        1 MOL      0.158240
    142 H63         7.1400   -5.4170   -3.5460 ha        1 MOL      0.158240
    143 H64         7.0610   -2.9700   -5.9220 ho        1 MOL      0.418574
    144 N13         6.6660    0.2560    0.0280 n         1 MOL     -0.128648
    145 C48         6.7050    1.7240    0.0120 c3        1 MOL     -0.219005
    146 C49         5.6780    2.4800    0.8860 c         1 MOL      0.522483
    147 O21         5.9670    3.4810    1.4330 o         1 MOL     -0.515239
    148 C50         6.7560    2.2860   -1.4390 c3        1 MOL      0.124412
    149 C51         7.0580    3.7920   -1.5030 c3        1 MOL     -0.314487
    150 C52         6.9010    4.3560   -2.9270 c         1 MOL      0.786384
    151 O22         5.8990    5.0180   -3.2990 o         1 MOL     -0.751864
    152 O23         7.8420    4.1940   -3.6890 o         1 MOL     -0.751864
    153 H65         6.2150   -0.1790   -0.7640 hn        1 MOL      0.213721
    154 H66         7.6700    2.0900    0.3830 h1        1 MOL      0.120637
    155 H67         5.8800    1.9690   -1.9900 hc        1 MOL      0.001410
    156 H68         7.5640    1.7910   -1.9760 hc        1 MOL      0.001410
    157 H69         8.1170    3.9500   -1.2980 hc        1 MOL      0.047539
    158 H70         6.4850    4.3600   -0.7810 hc        1 MOL      0.047539
    159 N14         4.5390    1.8650    1.2010 n         1 MOL     -0.199802
    160 C53         3.5780    2.2780    2.2400 c3        1 MOL     -0.145863
    161 C54         4.0160    1.7440    3.6390 c         1 MOL      0.424377
    162 O24         3.7250    2.3850    4.6680 o         1 MOL     -0.542710
    163 C55         2.2030    1.7330    1.8500 c3        1 MOL      0.056883
    164 C56         1.4940    2.0750    0.5540 c3        1 MOL     -0.204257
    165 C57         0.2700    1.2270    0.2440 c         1 MOL      0.790801
    166 O25         0.1680    0.0760    0.6850 o         1 MOL     -0.719762
    167 O26        -0.7170    1.6360   -0.3890 o         1 MOL     -0.719762
    168 H71         4.2640    1.0250    0.7170 hn        1 MOL      0.128313
    169 H72         3.6170    3.3610    2.2310 h1        1 MOL      0.125108
    170 H73         1.4940    2.1470    2.5610 hc        1 MOL      0.033610
    171 H74         2.3350    0.6470    1.9430 hc        1 MOL      0.033610
    172 H75         2.1270    1.9260   -0.3230 hc        1 MOL      0.053175
    173 H76         1.0760    3.0780    0.5810 hc        1 MOL      0.053175
    174 N15         4.7520    0.5620    3.7610 n         1 MOL     -0.009194
    175 C58         5.1530    0.1130    5.0820 c3        1 MOL     -0.256982
    176 H77         4.3430    0.2960    5.7890 h1        1 MOL      0.084913
    177 H78         5.3750   -0.9540    5.0520 h1        1 MOL      0.084913
    178 H79         6.0410    0.6600    5.3990 h1        1 MOL      0.084913
    179 H80         4.9980    0.0910    2.9120 hn        1 MOL      0.072941
    180 Ca1        -2.4500   -0.0960    0.1850 Ca        1 MOL      1.755742
    181 O27        -4.7980   -0.4060    1.4060 oh        1 MOL     -0.960652
    182 H81        -5.5500   -0.7500    1.8910 ho        1 MOL      0.438736
    183 H82        -5.0320    0.4950    1.2110 ho        1 MOL      0.438736
    184 O28        -2.4080    0.3500    2.8790 oh        1 MOL     -0.960652
    185 H83        -3.1570    0.2500    3.4590 ho        1 MOL      0.438736
    186 H84        -1.7560    0.8050    3.4040 ho        1 MOL      0.438736
    187 O29        -1.2310   -1.5130   -1.6830 oh        1 MOL     -0.960652
    188 H85        -0.9410   -0.9050   -2.3590 ho        1 MOL      0.438736
    189 H86        -1.9640   -1.9730   -2.0740 ho        1 MOL      0.438736
@<TRIPOS>BOND
     1    1    2 1   
     2    1    4 1   
     3    1    5 1   
     4    1    6 1   
     5    2    3 2   
     6    2    7 1   
     7    7    8 1   
     8    7   15 1   
     9    8    9 1   
    10    8   11 1   
    11    8   16 1   
    12    9   10 2   
    13    9   19 1   
    14   11   12 1   
    15   11   17 1   
    16   11   18 1   
    17   12   13 1   
    18   12   14 1   
    19   19   20 1   
    20   19   27 1   
    21   20   21 1   
    22   20   23 1   
    23   20   28 1   
    24   21   22 2   
    25   21   38 1   
    26   23   24 1   
    27   23   25 1   
    28   23   29 1   
    29   24   26 1   
    30   24   30 1   
    31   24   31 1   
    32   25   32 1   
    33   25   33 1   
    34   25   34 1   
    35   26   35 1   
    36   26   36 1   
    37   26   37 1   
    38   38   39 1   
    39   38   46 1   
    40   39   40 1   
    41   39   42 1   
    42   39   47 1   
    43   40   41 2   
    44   40   50 1   
    45   42   43 1   
    46   42   48 1   
    47   42   49 1   
    48   43   44 1   
    49   43   45 1   
    50   50   51 1   
    51   50   54 1   
    52   51   52 1   
    53   51   55 1   
    54   51   56 1   
    55   52   53 2   
    56   52   57 1   
    57   57   58 1   
    58   57   65 1   
    59   58   59 1   
    60   58   61 1   
    61   58   66 1   
    62   59   60 2   
    63   59   69 1   
    64   61   62 1   
    65   61   67 1   
    66   61   68 1   
    67   62   63 1   
    68   62   64 1   
    69   69   70 1   
    70   69   73 1   
    71   70   71 1   
    72   70   74 1   
    73   70   75 1   
    74   71   72 2   
    75   71   76 1   
    76   76   77 1   
    77   76   85 1   
    78   77   78 1   
    79   77   80 1   
    80   77   86 1   
    81   78   79 2   
    82   78   93 1   
    83   80   81 1   
    84   80   87 1   
    85   80   88 1   
    86   81   82 1   
    87   81   89 1   
    88   81   90 1   
    89   82   83 1   
    90   82   84 2   
    91   83   91 1   
    92   83   92 1   
    93   93   94 1   
    94   93  100 1   
    95   94   95 1   
    96   94   97 1   
    97   94  101 1   
    98   95   96 2   
    99   95  109 1   
   100   97   98 1   
   101   97   99 1   
   102   97  102 1   
   103   98  103 1   
   104   98  104 1   
   105   98  105 1   
   106   99  106 1   
   107   99  107 1   
   108   99  108 1   
   109  109  110 1   
   110  109  117 1   
   111  110  111 1   
   112  110  113 1   
   113  110  118 1   
   114  111  112 2   
   115  111  123 1   
   116  113  114 1   
   117  113  119 1   
   118  113  120 1   
   119  114  115 1   
   120  114  116 2   
   121  115  121 1   
   122  115  122 1   
   123  123  124 1   
   124  123  135 1   
   125  124  125 1   
   126  124  127 1   
   127  124  136 1   
   128  125  126 2   
   129  125  144 1   
   130  127  128 1   
   131  127  137 1   
   132  127  138 1   
   133  128  129 ar  
   134  128  130 ar  
   135  129  131 ar  
   136  129  139 1   
   137  130  132 ar  
   138  130  140 1   
   139  131  133 ar  
   140  131  141 1   
   141  132  133 ar  
   142  132  142 1   
   143  133  134 1   
   144  134  143 1   
   145  144  145 1   
   146  144  153 1   
   147  145  146 1   
   148  145  148 1   
   149  145  154 1   
   150  146  147 2   
   151  146  159 1   
   152  148  149 1   
   153  148  155 1   
   154  148  156 1   
   155  149  150 1   
   156  149  157 1   
   157  149  158 1   
   158  150  151 1   
   159  150  152 1   
   160  159  160 1   
   161  159  168 1   
   162  160  161 1   
   163  160  163 1   
   164  160  169 1   
   165  161  162 2   
   166  161  174 1   
   167  163  164 1   
   168  163  170 1   
   169  163  171 1   
   170  164  165 1   
   171  164  172 1   
   172  164  173 1   
   173  165  166 1   
   174  165  167 1   
   175  174  175 1   
   176  174  179 1   
   177  175  176 1   
   178  175  177 1   
   179  175  178 1   
   180  181  182 1   
   181  181  183 1   
   182  184  185 1   
   183  184  186 1   
   184  187  188 1   
   185  187  189 1   
@<TRIPOS>SUBSTRUCTURE
     1 MOL         1 TEMP              0 ****  ****    0 ROOT
