@<TRIPOS>MOLECULE
MOL
  179   176     1     0     0
SMALL
resp


@<TRIPOS>ATOM
      1 C1          1.7290    3.5700    6.5230 c3        1 MOL     -0.479660
      2 C2          1.5850    2.7060    5.2180 c         1 MOL      0.706555
      3 O1          2.6280    2.3780    4.6940 o         1 MOL     -0.563084
      4 H1          2.4910    4.3340    6.3700 hc        1 MOL      0.126854
      5 H2          0.7760    4.0480    6.7500 hc        1 MOL      0.126854
      6 H3          2.0210    2.9280    7.3540 hc        1 MOL      0.126854
      7 N1          0.4320    2.7990    4.5470 n         1 MOL     -0.571926
      8 C3          0.1560    2.5210    3.1580 c3        1 MOL      0.056541
      9 C4          0.4560    3.7660    2.3490 c         1 MOL      0.727463
     10 O2          0.0630    4.8830    2.6520 o         1 MOL     -0.575693
     11 C5         -1.2230    1.9370    2.9390 c3        1 MOL     -0.034247
     12 C6         -1.5450    1.3510    1.5670 c         1 MOL      0.565360
     13 O3         -0.6770    1.4660    0.6960 o         1 MOL     -0.675540
     14 O4         -2.7110    0.9200    1.3240 o         1 MOL     -0.675540
     15 H4         -0.3380    3.1250    5.1150 hn        1 MOL      0.294443
     16 H5          0.8580    1.7630    2.8050 h1        1 MOL      0.053669
     17 H6         -1.9950    2.6610    3.2070 hc        1 MOL      0.030460
     18 H7         -1.3610    1.1420    3.6760 hc        1 MOL      0.030460
     19 N2          0.9840    3.5120    1.1600 n         1 MOL     -0.578296
     20 C7          1.5480    4.5410    0.2370 c3        1 MOL     -0.031690
     21 C8          0.4550    5.3220   -0.5590 c         1 MOL      0.454501
     22 O5          0.5410    6.4990   -0.7970 o         1 MOL     -0.546687
     23 C9          2.6450    3.9430   -0.6620 c3        1 MOL      0.099341
     24 C10         3.4500    5.0180   -1.4230 c3        1 MOL     -0.326191
     25 C11         4.4870    4.2480   -2.3170 c3        1 MOL     -0.055667
     26 C12         5.1800    5.3210   -3.2000 c3        1 MOL      0.086137
     27 N3          6.0230    4.7500   -4.2680 n4        1 MOL     -0.405701
     28 H8          0.9560    2.5890    0.7580 hn        1 MOL      0.328908
     29 H9          2.0880    5.2470    0.8760 h1        1 MOL      0.118374
     30 H10         2.1920    3.2520   -1.3710 hc        1 MOL      0.043723
     31 H11         3.2780    3.3660    0.0090 hc        1 MOL      0.043723
     32 H12         3.9430    5.6750   -0.7060 hc        1 MOL      0.108619
     33 H13         2.8610    5.7270   -2.0020 hc        1 MOL      0.108619
     34 H14         4.0260    3.4570   -2.9230 hc        1 MOL      0.084068
     35 H15         5.1850    3.7930   -1.6110 hc        1 MOL      0.084068
     36 H16         5.7420    6.0580   -2.6300 hx        1 MOL      0.079489
     37 H17         4.3680    5.8940   -3.6560 hx        1 MOL      0.079489
     38 H18         6.8680    4.3370   -3.9070 hn        1 MOL      0.335416
     39 H19         5.5090    4.0560   -4.8020 hn        1 MOL      0.335416
     40 H20         6.2840    5.4440   -4.9510 hn        1 MOL      0.335416
     41 N4         -0.6560    4.6120   -0.8640 n         1 MOL     -0.222109
     42 C13        -1.8630    5.2170   -1.5380 c3        1 MOL      0.018637
     43 C14        -3.1580    5.0380   -0.6620 c         1 MOL      0.395187
     44 O6         -4.1440    5.6780   -1.0660 o         1 MOL     -0.521244
     45 C15        -2.1530    4.6690   -2.9510 c3        1 MOL     -0.207345
     46 C16        -2.5010    3.1590   -2.9610 c         1 MOL      0.829656
     47 O7         -2.8040    2.6720   -4.0940 o         1 MOL     -0.764292
     48 O8         -2.4660    2.3950   -2.0150 o         1 MOL     -0.764292
     49 H21        -0.5820    3.6250   -0.6520 hn        1 MOL      0.180980
     50 H22        -1.7110    6.2980   -1.5850 h1        1 MOL      0.113840
     51 H23        -1.2760    4.8120   -3.5910 hc        1 MOL      0.067551
     52 H24        -2.8790    5.3420   -3.4000 hc        1 MOL      0.067551
     53 N5         -3.1400    4.2680    0.4350 n         1 MOL     -0.099275
     54 C17        -4.3440    4.1370    1.3450 c3        1 MOL     -0.217954
     55 C18        -5.4620    3.1090    0.8440 c         1 MOL      0.456616
     56 O9         -6.5870    3.0260    1.4190 o         1 MOL     -0.555567
     57 H25        -2.2490    3.8920    0.7620 hn        1 MOL      0.119012
     58 H26        -4.8810    5.0810    1.4660 h1        1 MOL      0.123971
     59 H27        -4.0870    3.7410    2.3170 h1        1 MOL      0.123971
     60 N6         -5.2010    2.2450   -0.1030 n         1 MOL     -0.082402
     61 C19        -6.2780    1.5250   -0.8070 c3        1 MOL     -0.069053
     62 C20        -6.9120    0.4390    0.0390 c         1 MOL      0.517261
     63 O10        -8.0910    0.2160   -0.2020 o         1 MOL     -0.564435
     64 C21        -5.7710    0.9490   -2.1210 c3        1 MOL     -0.318073
     65 C22        -5.1330   -0.4420   -1.9980 c         1 MOL      0.470338
     66 N7         -5.8330   -1.4960   -2.3680 n         1 MOL     -0.663931
     67 O11        -4.1250   -0.6480   -1.3300 o         1 MOL     -0.545138
     68 H28        -4.2860    2.1920   -0.5340 hn        1 MOL      0.131543
     69 H29        -7.0740    2.2510   -1.0080 h1        1 MOL      0.123892
     70 H30        -5.0320    1.6330   -2.5560 hc        1 MOL      0.145571
     71 H31        -6.5380    0.9430   -2.9010 hc        1 MOL      0.145571
     72 H32        -6.7490   -1.2520   -2.7020 hn        1 MOL      0.351097
     73 H33        -5.4510   -2.3990   -2.1440 hn        1 MOL      0.351097
     74 N8         -6.1820   -0.2240    0.9340 n         1 MOL     -0.171779
     75 C23        -6.7100   -1.4060    1.6840 c3        1 MOL     -0.050868
     76 C24        -5.6580   -2.4140    2.0350 c         1 MOL      0.507123
     77 O12        -5.9390   -3.1550    2.9730 o         1 MOL     -0.550449
     78 H34        -5.2130    0.0580    1.0380 hn        1 MOL      0.122552
     79 H35        -7.3520   -1.9000    0.9590 h1        1 MOL      0.071386
     80 H36        -7.2630   -1.0280    2.5500 h1        1 MOL      0.071386
     81 N9         -4.5940   -2.6070    1.2550 n         1 MOL     -0.194009
     82 C25        -3.4790   -3.4330    1.6990 c3        1 MOL     -0.016337
     83 C26        -2.0890   -2.8170    1.3880 c         1 MOL      0.579674
     84 O13        -1.9150   -2.0160    0.4630 o         1 MOL     -0.608922
     85 C27        -3.5870   -4.8640    1.0870 c3        1 MOL     -0.023645
     86 C28        -4.2870   -4.8810   -0.2140 ca        1 MOL      0.034789
     87 C29        -3.8230   -4.1520   -1.2880 ca        1 MOL     -0.180573
     88 C30        -5.4870   -5.6460   -0.3310 ca        1 MOL     -0.180573
     89 C31        -4.5300   -4.1440   -2.5270 ca        1 MOL     -0.277057
     90 C32        -6.1780   -5.6450   -1.5570 ca        1 MOL     -0.277057
     91 C33        -5.6940   -4.8910   -2.6480 ca        1 MOL      0.382181
     92 O14        -6.4170   -4.8030   -3.7660 oh        1 MOL     -0.530949
     93 H37        -4.4630   -2.1430    0.3650 hn        1 MOL      0.175996
     94 H38        -3.4630   -3.5460    2.7830 h1        1 MOL      0.068817
     95 H39        -4.1940   -5.4220    1.7960 hc        1 MOL      0.035841
     96 H40        -2.6250   -5.3780    1.0890 hc        1 MOL      0.035841
     97 H41        -3.0210   -3.4450   -1.1740 ha        1 MOL      0.163955
     98 H42        -6.0780   -6.1610    0.4150 ha        1 MOL      0.163955
     99 H43        -4.2060   -3.5890   -3.3990 ha        1 MOL      0.147075
    100 H44        -7.1040   -6.1900   -1.6510 ha        1 MOL      0.147075
    101 H45        -7.2950   -5.1850   -3.6790 ho        1 MOL      0.396462
    102 N10        -1.1030   -3.1980    2.2010 n         1 MOL     -0.558355
    103 C34         0.2700   -2.6240    2.0790 c3        1 MOL      0.069820
    104 C35         1.1360   -3.6670    1.3680 c         1 MOL      0.477036
    105 O15         1.2590   -4.8060    1.8840 o         1 MOL     -0.551723
    106 C36         0.9290   -2.2920    3.4230 c3        1 MOL      0.224177
    107 C37        -0.0750   -1.6070    4.4520 c3        1 MOL      0.143561
    108 C38         2.1840   -1.4010    3.2490 c3        1 MOL     -0.331452
    109 C39         0.5740   -1.0840    5.7430 c3        1 MOL     -0.206236
    110 H46        -1.3330   -3.7480    3.0180 hn        1 MOL      0.315744
    111 H47         0.1760   -1.7500    1.4310 h1        1 MOL      0.057352
    112 H48         1.2130   -3.2540    3.8360 hc        1 MOL     -0.034563
    113 H49        -0.7610   -2.3260    4.9030 hc        1 MOL     -0.027838
    114 H50        -0.8180   -1.0030    3.9330 hc        1 MOL     -0.027838
    115 H51         1.8680   -0.4380    2.8520 hc        1 MOL      0.077221
    116 H52         2.8040   -1.5250    4.1480 hc        1 MOL      0.077221
    117 H53         2.8500   -1.8250    2.4960 hc        1 MOL      0.077221
    118 H54        -0.1290   -0.6580    6.4620 hc        1 MOL      0.042737
    119 H55         1.2480   -1.8060    6.2200 hc        1 MOL      0.042737
    120 H56         1.1430   -0.2170    5.4190 hc        1 MOL      0.042737
    121 N11         1.8000   -3.3220    0.2720 n         1 MOL     -0.181733
    122 C40         2.7410   -4.1980   -0.4300 c3        1 MOL     -0.103431
    123 C41         4.1870   -3.7570   -0.1370 c         1 MOL      0.449347
    124 O16         4.3930   -2.7310    0.4450 o         1 MOL     -0.344257
    125 C42         2.4630   -4.0870   -1.9270 c3        1 MOL      0.081683
    126 O17         2.5480   -2.7540   -2.4220 oh        1 MOL     -0.564866
    127 H57         1.6760   -2.3660   -0.0340 hn        1 MOL      0.174819
    128 H58         2.5950   -5.2540   -0.1800 h1        1 MOL      0.093839
    129 H59         1.4470   -4.4110   -2.1600 h1        1 MOL      0.039187
    130 H60         3.1720   -4.6980   -2.4940 h1        1 MOL      0.039187
    131 H61         1.8270   -2.2270   -2.0600 ho        1 MOL      0.399693
    132 N12         5.2010   -4.6160   -0.4460 n         1 MOL     -0.400657
    133 C43         6.5260   -4.6330    0.0670 c3        1 MOL      0.146035
    134 C44         7.2920   -3.2750   -0.3270 c         1 MOL      0.398455
    135 O18         7.8340   -2.6350    0.5810 o         1 MOL     -0.508617
    136 C45         7.1820   -5.9200   -0.4750 c3        1 MOL     -0.286152
    137 H62         4.9740   -5.4000   -1.0360 hn        1 MOL      0.257437
    138 H63         6.4360   -4.7610    1.1510 h1        1 MOL      0.083320
    139 H64         8.2050   -5.9640   -0.0940 hc        1 MOL      0.087716
    140 H65         6.6270   -6.7870   -0.1300 hc        1 MOL      0.087716
    141 H66         7.1890   -5.8510   -1.5630 hc        1 MOL      0.087716
    142 N13         7.1010   -2.7680   -1.5540 n         1 MOL     -0.316352
    143 C46         7.6740   -1.4640   -2.0200 c3        1 MOL      0.057010
    144 C47         6.9330   -0.2140   -1.5050 c         1 MOL      0.330349
    145 O19         7.4820    0.9000   -1.5670 o         1 MOL     -0.515818
    146 C48         7.8600   -1.4780   -3.5350 c3        1 MOL     -0.271850
    147 H67         6.7250   -3.3880   -2.2590 hn        1 MOL      0.256317
    148 H68         8.6780   -1.3100   -1.6280 h1        1 MOL      0.117938
    149 H69         8.3830   -2.3870   -3.8510 hc        1 MOL      0.079642
    150 H70         6.9060   -1.4890   -4.0710 hc        1 MOL      0.079642
    151 H71         8.3660   -0.5790   -3.8730 hc        1 MOL      0.079642
    152 N14         5.7450   -0.4260   -0.9580 n         1 MOL     -0.013305
    153 C49         4.9300    0.6130   -0.3280 c3        1 MOL     -0.015092
    154 C50         5.3340    0.8350    1.1750 c         1 MOL      0.431170
    155 O20         5.6720    1.9480    1.5850 o         1 MOL     -0.492571
    156 C51         3.4570    0.2800   -0.4590 c3        1 MOL      0.008598
    157 C52         3.0220    0.4640   -1.9340 c3        1 MOL     -0.031211
    158 C53         1.4970    0.2920   -1.8930 c         1 MOL      0.642504
    159 O21         1.0370   -0.7620   -1.4000 o         1 MOL     -0.713445
    160 O22         0.6720    1.2350   -2.0920 o         1 MOL     -0.713445
    161 H72         5.2860   -1.2990   -1.1580 hn        1 MOL      0.114008
    162 H73         5.0790    1.5020   -0.9320 h1        1 MOL     -0.019942
    163 H74         2.9650    1.0650    0.1230 hc        1 MOL     -0.003900
    164 H75         3.2630   -0.7180   -0.0620 hc        1 MOL     -0.003900
    165 H76         3.4780   -0.3020   -2.5520 hc        1 MOL     -0.020661
    166 H77         3.2740    1.4260   -2.3730 hc        1 MOL     -0.020661
    167 N15         5.5350   -0.3050    1.9070 n         1 MOL     -0.176698
    168 C54         6.2280   -0.3870    3.2040 c3        1 MOL     -0.112240
    169 H78         6.9420    0.4330    3.2860 h1        1 MOL      0.077253
    170 H79         5.4990   -0.3160    4.0110 h1        1 MOL      0.077253
    171 H80         6.7570   -1.3370    3.2740 h1        1 MOL      0.077253
    172 H81         5.2840   -1.1560    1.4240 hn        1 MOL      0.132743
    173 Ca1        -1.5880   -0.0140   -1.2730 Ca        1 MOL      1.738594
    174 O23        -2.4770    0.0010   -3.7980 oh        1 MOL     -0.836531
    175 H82        -2.6840    0.9110   -4.0310 ho        1 MOL      0.409305
    176 H83        -2.4700   -0.4680   -4.6350 ho        1 MOL      0.409305
    177 O24        -0.9350   -2.4860   -2.5050 oh        1 MOL     -0.836531
    178 H84        -0.8650   -2.7150   -3.4320 ho        1 MOL      0.409305
    179 H85        -0.7000   -3.2950   -2.0340 ho        1 MOL      0.409305
@<TRIPOS>BOND
     1    1    2 1   
     2    1    4 1   
     3    1    5 1   
     4    1    6 1   
     5    2    3 2   
     6    2    7 1   
     7    7    8 1   
     8    7   15 1   
     9    8    9 1   
    10    8   11 1   
    11    8   16 1   
    12    9   10 2   
    13    9   19 1   
    14   11   12 1   
    15   11   17 1   
    16   11   18 1   
    17   12   13 1   
    18   12   14 1   
    19   19   20 1   
    20   19   28 1   
    21   20   21 1   
    22   20   23 1   
    23   20   29 1   
    24   21   22 2   
    25   21   41 1   
    26   23   24 1   
    27   23   30 1   
    28   23   31 1   
    29   24   25 1   
    30   24   32 1   
    31   24   33 1   
    32   25   26 1   
    33   25   34 1   
    34   25   35 1   
    35   26   27 1   
    36   26   36 1   
    37   26   37 1   
    38   27   38 1   
    39   27   39 1   
    40   27   40 1   
    41   41   42 1   
    42   41   49 1   
    43   42   43 1   
    44   42   45 1   
    45   42   50 1   
    46   43   44 2   
    47   43   53 1   
    48   45   46 1   
    49   45   51 1   
    50   45   52 1   
    51   46   47 1   
    52   46   48 1   
    53   53   54 1   
    54   53   57 1   
    55   54   55 1   
    56   54   58 1   
    57   54   59 1   
    58   55   56 2   
    59   55   60 1   
    60   60   61 1   
    61   60   68 1   
    62   61   62 1   
    63   61   64 1   
    64   61   69 1   
    65   62   63 2   
    66   62   74 1   
    67   64   65 1   
    68   64   70 1   
    69   64   71 1   
    70   65   66 1   
    71   65   67 2   
    72   66   72 1   
    73   66   73 1   
    74   74   75 1   
    75   74   78 1   
    76   75   76 1   
    77   75   79 1   
    78   75   80 1   
    79   76   77 2   
    80   76   81 1   
    81   81   82 1   
    82   81   93 1   
    83   82   83 1   
    84   82   85 1   
    85   82   94 1   
    86   83   84 2   
    87   83  102 1   
    88   85   86 1   
    89   85   95 1   
    90   85   96 1   
    91   86   87 ar  
    92   86   88 ar  
    93   87   89 ar  
    94   87   97 1   
    95   88   90 ar  
    96   88   98 1   
    97   89   91 ar  
    98   89   99 1   
    99   90   91 ar  
   100   90  100 1   
   101   91   92 1   
   102   92  101 1   
   103  102  103 1   
   104  102  110 1   
   105  103  104 1   
   106  103  106 1   
   107  103  111 1   
   108  104  105 2   
   109  104  121 1   
   110  106  107 1   
   111  106  108 1   
   112  106  112 1   
   113  107  109 1   
   114  107  113 1   
   115  107  114 1   
   116  108  115 1   
   117  108  116 1   
   118  108  117 1   
   119  109  118 1   
   120  109  119 1   
   121  109  120 1   
   122  121  122 1   
   123  121  127 1   
   124  122  123 1   
   125  122  125 1   
   126  122  128 1   
   127  123  124 2   
   128  123  132 1   
   129  125  126 1   
   130  125  129 1   
   131  125  130 1   
   132  126  131 1   
   133  132  133 1   
   134  132  137 1   
   135  133  134 1   
   136  133  136 1   
   137  133  138 1   
   138  134  135 2   
   139  134  142 1   
   140  136  139 1   
   141  136  140 1   
   142  136  141 1   
   143  142  143 1   
   144  142  147 1   
   145  143  144 1   
   146  143  146 1   
   147  143  148 1   
   148  144  145 2   
   149  144  152 1   
   150  146  149 1   
   151  146  150 1   
   152  146  151 1   
   153  152  153 1   
   154  152  161 1   
   155  153  154 1   
   156  153  156 1   
   157  153  162 1   
   158  154  155 2   
   159  154  167 1   
   160  156  157 1   
   161  156  163 1   
   162  156  164 1   
   163  157  158 1   
   164  157  165 1   
   165  157  166 1   
   166  158  159 1   
   167  158  160 1   
   168  167  168 1   
   169  167  172 1   
   170  168  169 1   
   171  168  170 1   
   172  168  171 1   
   173  174  175 1   
   174  174  176 1   
   175  177  178 1   
   176  177  179 1   
@<TRIPOS>SUBSTRUCTURE
     1 MOL         1 TEMP              0 ****  ****    0 ROOT
