@<TRIPOS>MOLECULE
MOL
  175   173     1     0     0
SMALL
resp


@<TRIPOS>ATOM
      1 C1         -0.8140    4.2680    5.3770 c3        1 MOL     -0.383165
      2 C2         -1.0650    3.6320    3.9870 c         1 MOL      0.785645
      3 O1         -0.1180    3.7060    3.2310 o         1 MOL     -0.573713
      4 H1         -1.1410    3.5780    6.1550 hc        1 MOL      0.087941
      5 H2          0.2500    4.4710    5.4970 hc        1 MOL      0.087941
      6 H3         -1.3740    5.1990    5.4570 hc        1 MOL      0.087941
      7 N1         -2.2340    3.0830    3.6780 n         1 MOL     -0.753063
      8 C3         -2.6880    2.6120    2.3490 c3        1 MOL      0.321485
      9 C4         -3.2840    3.6920    1.4550 c         1 MOL      0.592762
     10 O2         -4.3450    4.2530    1.7360 o         1 MOL     -0.590603
     11 C5         -3.7640    1.5130    2.5410 c3        1 MOL     -0.329485
     12 C6         -4.2610    0.7720    1.2550 c         1 MOL      1.011872
     13 O3         -5.1730   -0.0230    1.4290 o         1 MOL     -0.791020
     14 O4         -3.7060    0.9340    0.1440 o         1 MOL     -0.791020
     15 H4         -2.8130    2.8110    4.4570 hn        1 MOL      0.348422
     16 H5         -1.8820    2.1090    1.8220 h1        1 MOL     -0.108435
     17 H6         -4.6160    2.0700    2.9450 hc        1 MOL      0.045564
     18 H7         -3.3700    0.7960    3.2690 hc        1 MOL      0.045564
     19 N2         -2.6150    3.9500    0.3440 n         1 MOL     -0.329265
     20 C7         -2.7640    5.1410   -0.4300 c3        1 MOL     -0.001583
     21 C8         -3.9150    4.9750   -1.4200 c         1 MOL      0.418851
     22 O5         -4.5100    5.9620   -1.9510 o         1 MOL     -0.577313
     23 C9         -1.4090    5.4230   -1.0660 c3        1 MOL     -0.156091
     24 H8         -1.8700    3.3180    0.0660 hn        1 MOL      0.225305
     25 H9         -3.0940    5.9500    0.2190 h1        1 MOL      0.084215
     26 H10        -0.8790    4.5020   -1.3360 hc        1 MOL      0.057187
     27 H11        -1.3780    6.0760   -1.9360 hc        1 MOL      0.057187
     28 H12        -0.7190    5.9610   -0.4150 hc        1 MOL      0.057187
     29 N3         -4.2650    3.7220   -1.7500 n         1 MOL     -0.219369
     30 C10        -5.2480    3.3490   -2.7540 c3        1 MOL     -0.009250
     31 C11        -6.3700    2.4170   -2.1460 c         1 MOL      0.345579
     32 O6         -7.2140    1.9880   -2.9620 o         1 MOL     -0.527075
     33 C12        -4.4380    2.6250   -3.8690 c3        1 MOL     -0.139781
     34 C13        -3.4100    1.5970   -3.3700 c         1 MOL      0.757115
     35 O7         -2.3200    1.9870   -2.9540 o         1 MOL     -0.751099
     36 O8         -3.6360    0.3920   -3.2120 o         1 MOL     -0.751099
     37 H13        -3.6270    3.0100   -1.4220 hn        1 MOL      0.247769
     38 H14        -5.7400    4.2380   -3.1530 h1        1 MOL      0.118833
     39 H15        -3.8050    3.3390   -4.3930 hc        1 MOL      0.031967
     40 H16        -5.0460    2.2800   -4.6980 hc        1 MOL      0.031967
     41 N4         -6.4110    2.1790   -0.8420 n         1 MOL     -0.083119
     42 C14        -7.5710    1.5550   -0.1150 c3        1 MOL     -0.269358
     43 C15        -7.7960    0.1290   -0.5150 c         1 MOL      0.553208
     44 O9         -8.9650   -0.2580   -0.3290 o         1 MOL     -0.573771
     45 H17        -5.5930    2.5460   -0.3720 hn        1 MOL      0.103696
     46 H18        -8.4770    2.1060   -0.3420 h1        1 MOL      0.133147
     47 H19        -7.3070    1.6430    0.9400 h1        1 MOL      0.133147
     48 N5         -6.8430   -0.6180   -1.0760 n         1 MOL     -0.227663
     49 C16        -7.0250   -2.0430   -1.5270 c3        1 MOL     -0.125639
     50 C17        -7.1470   -3.0890   -0.3640 c         1 MOL      0.476225
     51 O10        -7.8800   -4.0560   -0.5490 o         1 MOL     -0.524146
     52 C18        -5.8360   -2.3460   -2.3370 c3        1 MOL     -0.012154
     53 C19        -4.6080   -2.8590   -1.7150 c         1 MOL      0.479040
     54 N6         -4.2700   -4.0910   -1.7710 n         1 MOL     -0.687746
     55 O11        -3.8360   -2.1150   -1.0970 o         1 MOL     -0.573173
     56 H20        -5.9240   -0.2010   -1.1240 hn        1 MOL      0.172029
     57 H21        -7.9240   -2.1660   -2.1280 h1        1 MOL      0.126796
     58 H22        -5.5330   -1.6230   -3.0910 hc        1 MOL      0.043974
     59 H23        -6.2380   -3.1550   -2.9570 hc        1 MOL      0.043974
     60 H24        -4.9060   -4.7220   -2.2360 hn        1 MOL      0.324344
     61 H25        -3.5720   -4.4350   -1.1210 hn        1 MOL      0.324344
     62 N7         -6.4220   -2.7190    0.7600 n         1 MOL     -0.293554
     63 C20        -6.4290   -3.5030    2.0040 c3        1 MOL     -0.033316
     64 C21        -5.0910   -4.0940    2.4150 c         1 MOL      0.498036
     65 O12        -5.0620   -4.9870    3.1950 o         1 MOL     -0.538310
     66 H26        -5.9290   -1.8370    0.7350 hn        1 MOL      0.312084
     67 H27        -7.1130   -4.3490    1.9010 h1        1 MOL      0.070209
     68 H28        -6.7590   -2.9010    2.8400 h1        1 MOL      0.070209
     69 N8         -3.9740   -3.5140    1.8750 n         1 MOL     -0.215887
     70 C22        -2.5830   -3.7820    2.1640 c3        1 MOL     -0.052831
     71 C23        -1.6300   -2.5860    1.7810 c         1 MOL      0.525222
     72 O13        -1.9850   -1.6770    1.1130 o         1 MOL     -0.484254
     73 C24        -1.9920   -5.0130    1.4470 c3        1 MOL      0.293518
     74 C25        -2.7420   -6.2890    1.7510 c3        1 MOL     -0.470516
     75 O14        -2.0170   -4.8260    0.0320 oh        1 MOL     -0.682492
     76 H29        -4.1610   -2.6930    1.3180 hn        1 MOL      0.148518
     77 H30        -2.4090   -3.9320    3.2340 h1        1 MOL      0.075924
     78 H31        -0.9640   -5.1120    1.7780 h1        1 MOL      0.063726
     79 H32        -2.1300   -5.6780   -0.4120 ho        1 MOL      0.445735
     80 H33        -2.2210   -7.1250    1.2700 hc        1 MOL      0.129432
     81 H34        -2.8570   -6.2940    2.8250 hc        1 MOL      0.129432
     82 H35        -3.7260   -6.2440    1.2930 hc        1 MOL      0.129432
     83 N9         -0.4300   -2.5680    2.3390 n         1 MOL     -0.384638
     84 C26         0.6240   -1.5740    1.8400 c3        1 MOL     -0.035051
     85 C27         1.6820   -2.3690    1.0710 c         1 MOL      0.499326
     86 O15         2.1890   -3.4500    1.4170 o         1 MOL     -0.582651
     87 C28         1.2240   -0.6880    2.9190 c3        1 MOL      0.126657
     88 C29         1.8850   -1.5180    4.0470 c3        1 MOL     -0.205192
     89 C30         0.1590    0.3580    3.2780 c3        1 MOL     -0.365575
     90 C31         2.2960   -0.5960    5.1830 c3        1 MOL     -0.021861
     91 H36        -0.1960   -3.3870    2.8810 hn        1 MOL      0.240319
     92 H37         0.2630   -0.9050    1.0590 h1        1 MOL      0.000692
     93 H38         2.1120   -0.2040    2.5070 hc        1 MOL     -0.008335
     94 H39         2.8350   -1.8630    3.6480 hc        1 MOL      0.084062
     95 H40         1.1020   -2.2000    4.3660 hc        1 MOL      0.084062
     96 H41        -0.7160   -0.0660    3.7680 hc        1 MOL      0.118798
     97 H42         0.5290    1.2690    3.7450 hc        1 MOL      0.118798
     98 H43        -0.1080    0.9220    2.3830 hc        1 MOL      0.118798
     99 H44         2.9500    0.1940    4.8090 hc        1 MOL     -0.001843
    100 H45         1.4490   -0.0790    5.6120 hc        1 MOL     -0.001843
    101 H46         2.8490   -1.1790    5.9220 hc        1 MOL     -0.001843
    102 N10         1.9990   -1.8180   -0.1230 n         1 MOL     -0.261148
    103 C32         3.1530   -2.2440   -0.8820 c3        1 MOL      0.028593
    104 C33         4.4830   -1.6220   -0.2920 c         1 MOL      0.397288
    105 O16         4.4600   -0.9190    0.7210 o         1 MOL     -0.403487
    106 C34         2.8500   -1.7410   -2.3150 c3        1 MOL     -0.081000
    107 C35         3.5590   -2.5640   -3.4010 c         1 MOL      0.618206
    108 O17         4.8090   -2.8020   -3.2570 o         1 MOL     -0.680346
    109 O18         2.9830   -3.0540   -4.4080 o         1 MOL     -0.680346
    110 H47         1.5280   -1.0230   -0.5220 hn        1 MOL      0.128766
    111 H48         3.3260   -3.3120   -1.0030 h1        1 MOL      0.086932
    112 H49         3.0220   -0.6660   -2.3510 hc        1 MOL     -0.002734
    113 H50         1.7720   -1.7710   -2.4850 hc        1 MOL     -0.002734
    114 N11         5.7220   -1.8420   -0.8310 n         1 MOL     -0.495076
    115 C36         7.0010   -1.3160   -0.4040 c3        1 MOL      0.442362
    116 C37         7.0970    0.2380   -0.4450 c         1 MOL      0.112955
    117 O19         7.6780    0.7590    0.5420 o         1 MOL     -0.483084
    118 C38         8.0870   -2.1180   -1.1840 c3        1 MOL     -0.166614
    119 C39         9.4700   -1.8470   -0.7780 ca        1 MOL      0.190025
    120 C40         9.8320   -1.8200    0.5680 ca        1 MOL     -0.254423
    121 C41        10.4720   -1.7070   -1.7730 ca        1 MOL     -0.254423
    122 C42        11.2780   -1.6900    0.8630 ca        1 MOL     -0.000677
    123 C43        11.8080   -1.5790   -1.4490 ca        1 MOL     -0.000677
    124 C44        12.2190   -1.7200   -0.1480 ca        1 MOL     -0.243517
    125 H51         5.7260   -2.5410   -1.5610 hn        1 MOL      0.244119
    126 H52         7.0260   -1.7260    0.6010 h1        1 MOL      0.007081
    127 H53         8.0100   -1.7830   -2.2040 hc        1 MOL      0.057564
    128 H54         7.7770   -3.1710   -1.2280 hc        1 MOL      0.057564
    129 H55         9.1130   -1.8620    1.3620 ha        1 MOL      0.129151
    130 H56        10.2130   -1.5080   -2.7970 ha        1 MOL      0.129151
    131 H57        11.5960   -1.6760    1.9010 ha        1 MOL      0.078055
    132 H58        12.5470   -1.4770   -2.2240 ha        1 MOL      0.078055
    133 H59        13.2810   -1.6990    0.0640 ha        1 MOL      0.117077
    134 N12         6.6190    0.9870   -1.4220 n         1 MOL      0.058986
    135 C45         6.7090    2.4530   -1.3720 c3        1 MOL      0.005215
    136 C46         5.7630    2.9800   -0.3240 c         1 MOL      0.339586
    137 O20         6.1360    3.9360    0.3650 o         1 MOL     -0.490791
    138 C47         6.3780    2.9720   -2.8210 c3        1 MOL     -0.219961
    139 C48         5.6640    1.7790   -3.4470 c3        1 MOL     -0.011903
    140 C49         6.2440    0.5370   -2.7810 c3        1 MOL      0.043442
    141 H60         7.7220    2.7550   -1.1080 h1        1 MOL      0.063590
    142 H61         5.8390    3.9230   -2.8380 hc        1 MOL      0.085286
    143 H62         7.3350    3.0060   -3.3310 hc        1 MOL      0.085286
    144 H63         4.5990    1.8720   -3.2380 hc        1 MOL      0.026808
    145 H64         5.8890    1.7940   -4.5120 hc        1 MOL      0.026808
    146 H65         5.4420   -0.1900   -2.6680 h1        1 MOL      0.010257
    147 H66         7.1400    0.1650   -3.2760 h1        1 MOL      0.010257
    148 N13         4.5650    2.4780   -0.2110 n         1 MOL     -0.214099
    149 C50         3.6850    2.8390    0.8440 c3        1 MOL     -0.067771
    150 C51         4.3440    2.6590    2.2490 c         1 MOL      0.330711
    151 O21         4.3600    3.5770    3.1060 o         1 MOL     -0.541861
    152 C52         2.4500    1.9450    0.7090 c3        1 MOL      0.173165
    153 C53         1.5140    2.5450   -0.3620 c3        1 MOL     -0.250966
    154 C54         0.4240    1.5860   -0.5930 c         1 MOL      0.805860
    155 O22         0.7270    0.5170   -1.1080 o         1 MOL     -0.703705
    156 O23        -0.7910    1.7670   -0.2590 o         1 MOL     -0.703705
    157 H67         4.2230    1.8060   -0.8920 hn        1 MOL      0.293458
    158 H68         3.3710    3.8830    0.8100 h1        1 MOL      0.079343
    159 H69         1.9390    1.8000    1.6460 hc        1 MOL      0.042801
    160 H70         2.7830    0.9790    0.3070 hc        1 MOL      0.042801
    161 H71         2.1460    2.7120   -1.2340 hc        1 MOL      0.033199
    162 H72         1.0910    3.4230    0.1240 hc        1 MOL      0.033199
    163 N14         4.8940    1.4860    2.5510 n         1 MOL      0.160313
    164 C55         5.7170    1.2750    3.7070 c3        1 MOL     -0.268565
    165 H73         5.4210    0.3480    4.2000 h1        1 MOL      0.085726
    166 H74         6.7610    1.2060    3.4030 h1        1 MOL      0.085726
    167 H75         5.5940    2.1090    4.3990 h1        1 MOL      0.085726
    168 H76         4.7860    0.6850    1.9530 hn        1 MOL      0.022014
    169 Ca1        -1.9110   -0.2080   -1.3050 Ca        1 MOL      1.709018
    170 O24        -1.0170   -1.0310   -3.8600 oh        1 MOL     -0.723763
    171 H77        -1.1240   -1.9840   -3.9420 ho        1 MOL      0.370897
    172 H78        -0.1920   -0.8380   -4.3030 ho        1 MOL      0.370897
    173 O25        -1.1290   -2.6850   -1.4120 oh        1 MOL     -0.723763
    174 H79        -1.4820   -3.3380   -0.8060 ho        1 MOL      0.370897
    175 H80        -0.8320   -3.1890   -2.1730 ho        1 MOL      0.370897
@<TRIPOS>BOND
     1    1    2 1   
     2    1    4 1   
     3    1    5 1   
     4    1    6 1   
     5    2    3 2   
     6    2    7 1   
     7    7    8 1   
     8    7   15 1   
     9    8    9 1   
    10    8   11 1   
    11    8   16 1   
    12    9   10 2   
    13    9   19 1   
    14   11   12 1   
    15   11   17 1   
    16   11   18 1   
    17   12   13 1   
    18   12   14 1   
    19   19   20 1   
    20   19   24 1   
    21   20   21 1   
    22   20   23 1   
    23   20   25 1   
    24   21   22 2   
    25   21   29 1   
    26   23   26 1   
    27   23   27 1   
    28   23   28 1   
    29   29   30 1   
    30   29   37 1   
    31   30   31 1   
    32   30   33 1   
    33   30   38 1   
    34   31   32 2   
    35   31   41 1   
    36   33   34 1   
    37   33   39 1   
    38   33   40 1   
    39   34   35 1   
    40   34   36 1   
    41   41   42 1   
    42   41   45 1   
    43   42   43 1   
    44   42   46 1   
    45   42   47 1   
    46   43   44 2   
    47   43   48 1   
    48   48   49 1   
    49   48   56 1   
    50   49   50 1   
    51   49   52 1   
    52   49   57 1   
    53   50   51 2   
    54   50   62 1   
    55   52   53 1   
    56   52   58 1   
    57   52   59 1   
    58   53   54 1   
    59   53   55 2   
    60   54   60 1   
    61   54   61 1   
    62   62   63 1   
    63   62   66 1   
    64   63   64 1   
    65   63   67 1   
    66   63   68 1   
    67   64   65 2   
    68   64   69 1   
    69   69   70 1   
    70   69   76 1   
    71   70   71 1   
    72   70   73 1   
    73   70   77 1   
    74   71   72 2   
    75   71   83 1   
    76   73   74 1   
    77   73   75 1   
    78   73   78 1   
    79   74   80 1   
    80   74   81 1   
    81   74   82 1   
    82   75   79 1   
    83   83   84 1   
    84   83   91 1   
    85   84   85 1   
    86   84   87 1   
    87   84   92 1   
    88   85   86 2   
    89   85  102 1   
    90   87   88 1   
    91   87   89 1   
    92   87   93 1   
    93   88   90 1   
    94   88   94 1   
    95   88   95 1   
    96   89   96 1   
    97   89   97 1   
    98   89   98 1   
    99   90   99 1   
   100   90  100 1   
   101   90  101 1   
   102  102  103 1   
   103  102  110 1   
   104  103  104 1   
   105  103  106 1   
   106  103  111 1   
   107  104  105 2   
   108  104  114 1   
   109  106  107 1   
   110  106  112 1   
   111  106  113 1   
   112  107  108 1   
   113  107  109 1   
   114  114  115 1   
   115  114  125 1   
   116  115  116 1   
   117  115  118 1   
   118  115  126 1   
   119  116  117 2   
   120  116  134 1   
   121  118  119 1   
   122  118  127 1   
   123  118  128 1   
   124  119  120 ar  
   125  119  121 ar  
   126  120  122 ar  
   127  120  129 1   
   128  121  123 ar  
   129  121  130 1   
   130  122  124 ar  
   131  122  131 1   
   132  123  124 ar  
   133  123  132 1   
   134  124  133 1   
   135  134  135 1   
   136  134  140 1   
   137  135  136 1   
   138  135  138 1   
   139  135  141 1   
   140  136  137 2   
   141  136  148 1   
   142  138  139 1   
   143  138  142 1   
   144  138  143 1   
   145  139  140 1   
   146  139  144 1   
   147  139  145 1   
   148  140  146 1   
   149  140  147 1   
   150  148  149 1   
   151  148  157 1   
   152  149  150 1   
   153  149  152 1   
   154  149  158 1   
   155  150  151 2   
   156  150  163 1   
   157  152  153 1   
   158  152  159 1   
   159  152  160 1   
   160  153  154 1   
   161  153  161 1   
   162  153  162 1   
   163  154  155 1   
   164  154  156 1   
   165  163  164 1   
   166  163  168 1   
   167  164  165 1   
   168  164  166 1   
   169  164  167 1   
   170  170  171 1   
   171  170  172 1   
   172  173  174 1   
   173  173  175 1   
@<TRIPOS>SUBSTRUCTURE
     1 MOL         1 TEMP              0 ****  ****    0 ROOT
