@<TRIPOS>MOLECULE
MOL
  175   173     1     0     0
SMALL
resp


@<TRIPOS>ATOM
      1 C1         -0.1160    4.9130    5.2570 c3        1 MOL     -0.399422
      2 C2         -0.6220    4.6290    3.7830 c         1 MOL      0.729915
      3 O1          0.1860    4.3470    2.9040 o         1 MOL     -0.563018
      4 H1         -0.7200    5.7030    5.7020 hc        1 MOL      0.093734
      5 H2         -0.2080    4.0060    5.8540 hc        1 MOL      0.093734
      6 H3          0.9280    5.2260    5.2290 hc        1 MOL      0.093734
      7 N1         -1.9600    4.6980    3.5030 n         1 MOL     -0.638527
      8 C3         -2.5810    4.0150    2.3380 c3        1 MOL      0.087555
      9 C4         -2.9680    5.0600    1.2510 c         1 MOL      0.741952
     10 O2         -3.2850    6.2210    1.5750 o         1 MOL     -0.629911
     11 C5         -3.8560    3.2590    2.7360 c3        1 MOL     -0.202994
     12 C6         -4.2930    2.3910    1.5690 c         1 MOL      0.661959
     13 O3         -5.4880    1.9830    1.6450 o         1 MOL     -0.679539
     14 O4         -3.5610    2.1370    0.5570 o         1 MOL     -0.679539
     15 H4         -2.6280    4.9720    4.2050 hn        1 MOL      0.312586
     16 H5         -1.8320    3.3280    1.9440 h1        1 MOL      0.117951
     17 H6         -4.6960    3.8480    3.1040 hc        1 MOL      0.051296
     18 H7         -3.6170    2.5550    3.5350 hc        1 MOL      0.051296
     19 N2         -2.8820    4.7330   -0.0200 n         1 MOL     -0.774308
     20 C7         -3.0780    5.5140   -1.2920 c3        1 MOL      0.556736
     21 C8         -3.9590    4.8250   -2.3340 c         1 MOL      0.418974
     22 O5         -4.1860    5.3340   -3.3770 o         1 MOL     -0.558645
     23 C9         -1.7410    5.8760   -1.9190 c3        1 MOL     -0.430418
     24 H8         -2.6760    3.7620   -0.2010 hn        1 MOL      0.360051
     25 H9         -3.5910    6.4570   -1.1230 h1        1 MOL     -0.041054
     26 H10        -1.1400    6.3940   -1.1590 hc        1 MOL      0.105719
     27 H11        -1.3360    4.9530   -2.3260 hc        1 MOL      0.105719
     28 H12        -1.9110    6.5130   -2.7880 hc        1 MOL      0.105719
     29 N3         -4.4620    3.6340   -2.0640 n         1 MOL     -0.510499
     30 C10        -5.0840    2.7450   -3.1140 c3        1 MOL      0.268360
     31 C11        -6.2840    1.9780   -2.6230 c         1 MOL      0.452719
     32 O6         -7.1170    1.5680   -3.3550 o         1 MOL     -0.562105
     33 C12        -4.0400    1.8680   -3.7550 c3        1 MOL     -0.001628
     34 C13        -3.1570    1.1020   -2.8170 c         1 MOL      0.684663
     35 O7         -3.7280    0.4950   -1.9120 o         1 MOL     -0.684998
     36 O8         -1.9490    1.1970   -2.9750 o         1 MOL     -0.684998
     37 H13        -4.1960    3.2360   -1.1780 hn        1 MOL      0.242485
     38 H14        -5.5710    3.3320   -3.8950 h1        1 MOL      0.017932
     39 H15        -3.3970    2.5140   -4.3620 hc        1 MOL     -0.014677
     40 H16        -4.5060    1.3290   -4.5700 hc        1 MOL     -0.014677
     41 N4         -6.4060    1.7420   -1.3210 n         1 MOL     -0.342359
     42 C14        -7.4930    0.7970   -0.9380 c3        1 MOL     -0.046582
     43 C15        -7.3490   -0.6740   -1.4130 c         1 MOL      0.425672
     44 O9         -8.3770   -1.3480   -1.4300 o         1 MOL     -0.595952
     45 H17        -5.7480    2.0980   -0.6500 hn        1 MOL      0.215806
     46 H18        -8.4820    1.1960   -1.1640 h1        1 MOL      0.084671
     47 H19        -7.5630    0.7830    0.1540 h1        1 MOL      0.084671
     48 N5         -6.1830   -1.1170   -1.8640 n         1 MOL     -0.020679
     49 C16        -5.8410   -2.5350   -2.1590 c3        1 MOL     -0.040987
     50 C17        -5.7230   -3.5500   -0.9830 c         1 MOL      0.384161
     51 O10        -5.5050   -4.7460   -1.1610 o         1 MOL     -0.469624
     52 C18        -4.7070   -2.6890   -3.0790 c3        1 MOL     -0.240854
     53 C19        -3.4010   -2.5380   -2.4150 c         1 MOL      0.700712
     54 N6         -2.3750   -2.5630   -3.1930 n         1 MOL     -0.642719
     55 O11        -3.1910   -2.2680   -1.3020 o         1 MOL     -0.509081
     56 H20        -5.4170   -0.4520   -1.8750 hn        1 MOL     -0.005629
     57 H21        -6.7590   -2.8680   -2.6460 h1        1 MOL      0.106092
     58 H22        -4.7940   -2.0280   -3.9370 hc        1 MOL      0.076703
     59 H23        -4.7030   -3.7310   -3.4150 hc        1 MOL      0.076703
     60 H24        -2.5650   -2.7320   -4.1730 hn        1 MOL      0.292392
     61 H25        -1.4210   -2.4840   -2.8540 hn        1 MOL      0.292392
     62 N7         -5.9540   -3.1600    0.2850 n         1 MOL     -0.240150
     63 C20        -5.9860   -4.0470    1.4700 c3        1 MOL     -0.039688
     64 C21        -4.6230   -4.5590    2.0040 c         1 MOL      0.478001
     65 O12        -4.5940   -5.3790    2.9350 o         1 MOL     -0.594419
     66 H26        -6.3860   -2.2630    0.4030 hn        1 MOL      0.219230
     67 H27        -6.6070   -4.9300    1.3400 h1        1 MOL      0.069004
     68 H28        -6.4420   -3.5230    2.3180 h1        1 MOL      0.069004
     69 N8         -3.5160   -4.0350    1.4830 n         1 MOL     -0.008366
     70 C22        -2.0900   -4.4600    1.8040 c3        1 MOL     -0.104302
     71 C23        -1.1090   -3.3110    1.7490 c         1 MOL      0.349931
     72 O13        -1.2200   -2.3390    0.9400 o         1 MOL     -0.224606
     73 C24        -1.5790   -5.4510    0.7420 c3        1 MOL      0.483843
     74 C25        -2.3920   -6.8280    0.7690 c3        1 MOL     -0.510101
     75 O14        -1.8220   -4.8120   -0.5330 oh        1 MOL     -0.588491
     76 H29        -3.6590   -3.2390    0.8720 hn        1 MOL     -0.129613
     77 H30        -1.8940   -4.9120    2.7720 h1        1 MOL      0.041123
     78 H31        -0.5460   -5.7040    0.9840 h1        1 MOL     -0.017334
     79 H32        -1.3830   -3.9610   -0.5450 ho        1 MOL      0.315669
     80 H33        -2.9290   -7.0180    1.6920 hc        1 MOL      0.133415
     81 H34        -3.1460   -6.7930   -0.0060 hc        1 MOL      0.133415
     82 H35        -1.6310   -7.6070    0.6570 hc        1 MOL      0.133415
     83 N9         -0.1070   -3.4120    2.6410 n         1 MOL     -0.490176
     84 C26         1.0450   -2.5410    2.5950 c3        1 MOL     -0.040438
     85 C27         1.8470   -2.9900    1.3320 c         1 MOL      0.480924
     86 O15         2.4290   -4.0370    1.2150 o         1 MOL     -0.588960
     87 C28         1.9480   -2.6350    3.9170 c3        1 MOL      0.130486
     88 C29         1.2000   -2.1830    5.1870 c3        1 MOL     -0.016721
     89 C30         3.3010   -1.9210    3.8450 c3        1 MOL     -0.146331
     90 C31         0.4930   -0.8570    5.0820 c3        1 MOL     -0.436662
     91 H36        -0.0540   -4.2970    3.1120 hn        1 MOL      0.332619
     92 H37         0.7880   -1.4940    2.4350 h1        1 MOL      0.187915
     93 H38         2.1360   -3.6780    4.1460 hc        1 MOL     -0.015301
     94 H39         1.9590   -2.1270    5.9730 hc        1 MOL      0.020754
     95 H40         0.6680   -3.0760    5.5070 hc        1 MOL      0.020754
     96 H41         3.8640   -2.2610    2.9700 hc        1 MOL      0.033519
     97 H42         3.2290   -0.8360    3.7670 hc        1 MOL      0.033519
     98 H43         3.9380   -2.1530    4.7000 hc        1 MOL      0.033519
     99 H44         1.2890   -0.1210    4.9350 hc        1 MOL      0.115252
    100 H45        -0.2860   -0.8710    4.3260 hc        1 MOL      0.115252
    101 H46         0.0600   -0.6980    6.0740 hc        1 MOL      0.115252
    102 N10         1.7610   -2.1150    0.3640 n         1 MOL      0.131449
    103 C32         2.6930   -1.9930   -0.8140 c3        1 MOL     -0.096980
    104 C33         4.0790   -1.4590   -0.5030 c         1 MOL      0.535305
    105 O16         4.3330   -0.6910    0.4610 o         1 MOL     -0.451325
    106 C34         2.0790   -0.9870   -1.6850 c3        1 MOL     -0.411431
    107 C35         0.7520   -1.4450   -2.1780 c         1 MOL      0.917489
    108 O17        -0.3440   -1.1460   -1.6880 o         1 MOL     -0.706090
    109 O18         0.8010   -2.0470   -3.2680 o         1 MOL     -0.706090
    110 H47         1.1650   -1.3020    0.3950 hn        1 MOL     -0.436792
    111 H48         2.7390   -2.9570   -1.3150 h1        1 MOL      0.076038
    112 H49         2.7170   -0.6550   -2.5070 hc        1 MOL      0.125309
    113 H50         2.0160   -0.0480   -1.1310 hc        1 MOL      0.125309
    114 N11         5.0240   -1.9090   -1.3330 n         1 MOL     -0.442984
    115 C36         6.3940   -1.6190   -1.2640 c3        1 MOL      0.146927
    116 C37         6.7160   -0.1290   -1.0360 c         1 MOL      0.471094
    117 O19         7.4330    0.1600   -0.0390 o         1 MOL     -0.533486
    118 C38         7.0820   -2.2070   -2.5270 c3        1 MOL     -0.183049
    119 C39         8.5180   -1.6910   -2.6420 ca        1 MOL      0.062590
    120 C40         9.5150   -2.0370   -1.7170 ca        1 MOL     -0.121892
    121 C41         8.9040   -0.9400   -3.7620 ca        1 MOL     -0.121892
    122 C42        10.8420   -1.5870   -1.7800 ca        1 MOL     -0.166989
    123 C43        10.1860   -0.4700   -3.8660 ca        1 MOL     -0.166989
    124 C44        11.1750   -0.6930   -2.8360 ca        1 MOL     -0.056544
    125 H51         4.8420   -2.6250   -2.0170 hn        1 MOL      0.292037
    126 H52         6.7150   -2.1180   -0.3460 h1        1 MOL      0.063578
    127 H53         6.5930   -1.9200   -3.4580 hc        1 MOL      0.074588
    128 H54         7.0990   -3.2910   -2.4800 hc        1 MOL      0.074588
    129 H55         9.2190   -2.7020   -0.9160 ha        1 MOL      0.104855
    130 H56         8.1630   -0.5970   -4.4700 ha        1 MOL      0.104855
    131 H57        11.4920   -1.8030   -0.9480 ha        1 MOL      0.126087
    132 H58        10.4520    0.2070   -4.6640 ha        1 MOL      0.126087
    133 H59        12.1790   -0.3220   -2.9430 ha        1 MOL      0.089341
    134 N12         6.1010    0.8780   -1.7190 n         1 MOL     -0.152440
    135 C45         6.3700    2.2520   -1.3600 c3        1 MOL      0.038040
    136 C46         5.7470    2.7340   -0.0080 c         1 MOL      0.309129
    137 O20         6.1080    3.8120    0.4630 o         1 MOL     -0.520139
    138 C47         5.8690    2.9900   -2.5730 c3        1 MOL     -0.159655
    139 C48         4.7230    2.0600   -3.1150 c3        1 MOL     -0.106520
    140 C49         5.4640    0.7310   -2.9240 c3        1 MOL      0.104322
    141 H60         7.4500    2.4090   -1.2970 h1        1 MOL      0.065469
    142 H61         5.6600    4.0140   -2.2770 hc        1 MOL      0.071889
    143 H62         6.5930    3.0610   -3.3850 hc        1 MOL      0.071889
    144 H63         3.8140    2.0500   -2.5070 hc        1 MOL      0.057790
    145 H64         4.4370    2.1940   -4.1630 hc        1 MOL      0.057790
    146 H65         4.7570   -0.1030   -2.9250 h1        1 MOL     -0.010399
    147 H66         6.1110    0.5290   -3.7770 h1        1 MOL     -0.010399
    148 N13         4.7670    2.0410    0.5290 n         1 MOL      0.003540
    149 C50         4.1250    2.2630    1.8150 c3        1 MOL     -0.232801
    150 C51         5.0690    1.7400    2.8720 c         1 MOL      0.508464
    151 O21         4.9490    2.3620    3.9590 o         1 MOL     -0.549969
    152 C52         2.7400    1.5800    1.8490 c3        1 MOL     -0.010868
    153 C53         1.8620    2.1100    0.7410 c3        1 MOL     -0.202956
    154 C54         0.5930    1.3280    0.6420 c         1 MOL      0.909093
    155 O22         0.3650    0.2070    1.1100 o         1 MOL     -0.794605
    156 O23        -0.3420    1.8980   -0.0010 o         1 MOL     -0.794605
    157 H67         4.3580    1.1870    0.1810 hn        1 MOL      0.144677
    158 H68         3.9970    3.3390    1.9120 h1        1 MOL      0.138649
    159 H69         2.2600    1.5880    2.8320 hc        1 MOL      0.079007
    160 H70         2.9220    0.5040    1.7300 hc        1 MOL      0.079007
    161 H71         2.3550    1.9700   -0.2150 hc        1 MOL      0.081130
    162 H72         1.6500    3.1800    0.7850 hc        1 MOL      0.081130
    163 N14         5.9360    0.6360    2.6850 n         1 MOL     -0.166685
    164 C55         6.9880    0.3530    3.6720 c3        1 MOL     -0.134751
    165 H73         6.7420    0.8410    4.6150 h1        1 MOL      0.062385
    166 H74         7.0590   -0.7240    3.8280 h1        1 MOL      0.062385
    167 H75         7.9420    0.7320    3.3050 h1        1 MOL      0.062385
    168 H76         5.9260    0.2500    1.7470 hn        1 MOL      0.141485
    169 Ca1        -2.0120   -0.0950   -0.1580 Ca        1 MOL      1.714934
    170 O24        -1.6120    0.7430    2.9430 oh        1 MOL     -0.801459
    171 H77        -1.7640   -0.0130    3.5130 ho        1 MOL      0.399158
    172 H78        -0.7370    0.5990    2.5870 ho        1 MOL      0.399158
    173 O25        -3.6140   -1.0270    1.8240 oh        1 MOL     -0.801459
    174 H79        -3.6100   -0.8820    2.7710 ho        1 MOL      0.399158
    175 H80        -4.5420   -0.9290    1.5790 ho        1 MOL      0.399158
@<TRIPOS>BOND
     1    1    2 1   
     2    1    4 1   
     3    1    5 1   
     4    1    6 1   
     5    2    3 2   
     6    2    7 1   
     7    7    8 1   
     8    7   15 1   
     9    8    9 1   
    10    8   11 1   
    11    8   16 1   
    12    9   10 2   
    13    9   19 1   
    14   11   12 1   
    15   11   17 1   
    16   11   18 1   
    17   12   13 1   
    18   12   14 1   
    19   19   20 1   
    20   19   24 1   
    21   20   21 1   
    22   20   23 1   
    23   20   25 1   
    24   21   22 2   
    25   21   29 1   
    26   23   26 1   
    27   23   27 1   
    28   23   28 1   
    29   29   30 1   
    30   29   37 1   
    31   30   31 1   
    32   30   33 1   
    33   30   38 1   
    34   31   32 2   
    35   31   41 1   
    36   33   34 1   
    37   33   39 1   
    38   33   40 1   
    39   34   35 1   
    40   34   36 1   
    41   41   42 1   
    42   41   45 1   
    43   42   43 1   
    44   42   46 1   
    45   42   47 1   
    46   43   44 2   
    47   43   48 1   
    48   48   49 1   
    49   48   56 1   
    50   49   50 1   
    51   49   52 1   
    52   49   57 1   
    53   50   51 2   
    54   50   62 1   
    55   52   53 1   
    56   52   58 1   
    57   52   59 1   
    58   53   54 1   
    59   53   55 2   
    60   54   60 1   
    61   54   61 1   
    62   62   63 1   
    63   62   66 1   
    64   63   64 1   
    65   63   67 1   
    66   63   68 1   
    67   64   65 2   
    68   64   69 1   
    69   69   70 1   
    70   69   76 1   
    71   70   71 1   
    72   70   73 1   
    73   70   77 1   
    74   71   72 2   
    75   71   83 1   
    76   73   74 1   
    77   73   75 1   
    78   73   78 1   
    79   74   80 1   
    80   74   81 1   
    81   74   82 1   
    82   75   79 1   
    83   83   84 1   
    84   83   91 1   
    85   84   85 1   
    86   84   87 1   
    87   84   92 1   
    88   85   86 2   
    89   85  102 1   
    90   87   88 1   
    91   87   89 1   
    92   87   93 1   
    93   88   90 1   
    94   88   94 1   
    95   88   95 1   
    96   89   96 1   
    97   89   97 1   
    98   89   98 1   
    99   90   99 1   
   100   90  100 1   
   101   90  101 1   
   102  102  103 1   
   103  102  110 1   
   104  103  104 1   
   105  103  106 1   
   106  103  111 1   
   107  104  105 2   
   108  104  114 1   
   109  106  107 1   
   110  106  112 1   
   111  106  113 1   
   112  107  108 1   
   113  107  109 1   
   114  114  115 1   
   115  114  125 1   
   116  115  116 1   
   117  115  118 1   
   118  115  126 1   
   119  116  117 2   
   120  116  134 1   
   121  118  119 1   
   122  118  127 1   
   123  118  128 1   
   124  119  120 ar  
   125  119  121 ar  
   126  120  122 ar  
   127  120  129 1   
   128  121  123 ar  
   129  121  130 1   
   130  122  124 ar  
   131  122  131 1   
   132  123  124 ar  
   133  123  132 1   
   134  124  133 1   
   135  134  135 1   
   136  134  140 1   
   137  135  136 1   
   138  135  138 1   
   139  135  141 1   
   140  136  137 2   
   141  136  148 1   
   142  138  139 1   
   143  138  142 1   
   144  138  143 1   
   145  139  140 1   
   146  139  144 1   
   147  139  145 1   
   148  140  146 1   
   149  140  147 1   
   150  148  149 1   
   151  148  157 1   
   152  149  150 1   
   153  149  152 1   
   154  149  158 1   
   155  150  151 2   
   156  150  163 1   
   157  152  153 1   
   158  152  159 1   
   159  152  160 1   
   160  153  154 1   
   161  153  161 1   
   162  153  162 1   
   163  154  155 1   
   164  154  156 1   
   165  163  164 1   
   166  163  168 1   
   167  164  165 1   
   168  164  166 1   
   169  164  167 1   
   170  170  171 1   
   171  170  172 1   
   172  173  174 1   
   173  173  175 1   
@<TRIPOS>SUBSTRUCTURE
     1 MOL         1 TEMP              0 ****  ****    0 ROOT
