@<TRIPOS>MOLECULE
MOL
  179   176     1     0     0
SMALL
resp


@<TRIPOS>ATOM
      1 C1          0.7870    4.7450    5.0470 c3        1 MOL     -0.274248
      2 C2          0.5870    4.1480    3.6400 c         1 MOL      0.639888
      3 O1          1.5700    4.0250    2.9440 o         1 MOL     -0.553309
      4 H1          0.6380    3.9670    5.7960 hc        1 MOL      0.067034
      5 H2          1.7990    5.1420    5.1330 hc        1 MOL      0.067034
      6 H3          0.0670    5.5470    5.2080 hc        1 MOL      0.067034
      7 N1         -0.6370    3.7000    3.3030 n         1 MOL     -0.617833
      8 C3         -1.0830    3.0750    2.0250 c3        1 MOL      0.053273
      9 C4         -1.6240    4.1850    1.0620 c         1 MOL      0.488283
     10 O2         -2.8100    4.5220    1.0210 o         1 MOL     -0.539416
     11 C5         -2.0820    1.9480    2.3690 c3        1 MOL      0.016347
     12 C6         -2.6420    1.2420    1.1220 c         1 MOL      0.486572
     13 O3         -3.5380    0.3890    1.2350 o         1 MOL     -0.628186
     14 O4         -2.1000    1.5530    0.0410 o         1 MOL     -0.628186
     15 H4         -1.3250    3.7610    4.0410 hn        1 MOL      0.333943
     16 H5         -0.3330    2.5240    1.4700 h1        1 MOL      0.012239
     17 H6         -2.8130    2.2790    3.1100 hc        1 MOL      0.013056
     18 H7         -1.5930    1.1780    2.9630 hc        1 MOL      0.013056
     19 N2         -0.7460    4.7550    0.2810 n         1 MOL     -0.175295
     20 C7         -1.0160    5.9870   -0.4990 c3        1 MOL     -0.191762
     21 C8         -2.0650    5.8110   -1.6130 c         1 MOL      0.496012
     22 O5         -2.4480    6.7660   -2.3140 o         1 MOL     -0.575601
     23 C9          0.2970    6.6760   -1.1500 c3        1 MOL     -0.035586
     24 C10         1.4870    6.9280   -0.1790 c3        1 MOL     -0.036166
     25 C11         1.1310    7.6450    1.0940 c3        1 MOL     -0.014920
     26 C12         2.3740    8.1260    1.8810 c3        1 MOL     -0.011429
     27 N3          1.9880    8.9320    3.0660 n4        1 MOL     -0.271253
     28 H8          0.0840    4.2050    0.0980 hn        1 MOL      0.289534
     29 H9         -1.4750    6.6380    0.2530 h1        1 MOL      0.114338
     30 H10         0.0970    7.6030   -1.6950 hc        1 MOL      0.073292
     31 H11         0.6550    5.9880   -1.9160 hc        1 MOL      0.073292
     32 H12         2.1680    7.6100   -0.6830 hc        1 MOL      0.027189
     33 H13         1.9810    5.9970    0.1080 hc        1 MOL      0.027189
     34 H14         0.5560    7.0300    1.7930 hc        1 MOL      0.014106
     35 H15         0.4230    8.4130    0.7650 hc        1 MOL      0.014106
     36 H16         3.0600    8.6960    1.2590 hx        1 MOL      0.105416
     37 H17         2.9210    7.2270    2.1570 hx        1 MOL      0.105416
     38 H18         2.7430    9.5090    3.4090 hn        1 MOL      0.302662
     39 H19         1.2260    9.5550    2.8380 hn        1 MOL      0.302662
     40 H20         1.5720    8.4350    3.8360 hn        1 MOL      0.302662
     41 N4         -2.4090    4.5910   -1.9120 n         1 MOL     -0.202779
     42 C13        -3.5960    4.3260   -2.7780 c3        1 MOL      0.107461
     43 C14        -4.8750    3.7960   -2.0750 c         1 MOL      0.291134
     44 O6         -6.0170    3.9090   -2.5260 o         1 MOL     -0.497561
     45 C15        -3.1830    3.3320   -3.8900 c3        1 MOL     -0.277454
     46 C16        -2.5990    2.0600   -3.3380 c         1 MOL      0.857039
     47 O7         -3.2450    1.0840   -3.0590 o         1 MOL     -0.786995
     48 O8         -1.3120    1.9890   -3.1360 o         1 MOL     -0.786995
     49 H21        -2.0060    3.8440   -1.3640 hn        1 MOL      0.129364
     50 H22        -3.9550    5.2020   -3.3180 h1        1 MOL      0.104041
     51 H23        -2.3970    3.7540   -4.5160 hc        1 MOL      0.066655
     52 H24        -4.0030    3.1260   -4.5750 hc        1 MOL      0.066655
     53 N5         -4.7340    3.2290   -0.8630 n         1 MOL      0.027070
     54 C17        -5.9100    2.7720   -0.0760 c3        1 MOL     -0.264622
     55 C18        -6.6150    1.4880   -0.4980 c         1 MOL      0.565505
     56 O9         -7.8350    1.4570   -0.5250 o         1 MOL     -0.544276
     57 H25        -3.7760    3.1120   -0.5900 hn        1 MOL      0.049254
     58 H26        -6.6910    3.5260   -0.2120 h1        1 MOL      0.112375
     59 H27        -5.6880    2.7260    0.9920 h1        1 MOL      0.112375
     60 N6         -5.8050    0.4520   -0.8100 n         1 MOL     -0.247613
     61 C19        -6.3390   -0.8670   -1.1040 c3        1 MOL     -0.009229
     62 C20        -6.3640   -1.7540    0.2160 c         1 MOL      0.249893
     63 O10        -6.8740   -2.9070    0.1710 o         1 MOL     -0.480767
     64 C21        -5.6520   -1.5180   -2.2890 c3        1 MOL     -0.142772
     65 C22        -4.1680   -1.9230   -2.0930 c         1 MOL      0.678953
     66 N7         -3.7120   -2.8560   -2.9310 n         1 MOL     -0.682092
     67 O11        -3.4690   -1.4850   -1.2470 o         1 MOL     -0.570902
     68 H28        -4.8080    0.6300   -0.9140 hn        1 MOL      0.210728
     69 H29        -7.4010   -0.8270   -1.3360 h1        1 MOL      0.105714
     70 H30        -5.6890   -0.8470   -3.1510 hc        1 MOL      0.065413
     71 H31        -6.2490   -2.3940   -2.5290 hc        1 MOL      0.065413
     72 H32        -4.3190   -3.3140   -3.5960 hn        1 MOL      0.308687
     73 H33        -2.8380   -3.3350   -2.7340 hn        1 MOL      0.308687
     74 N8         -5.6640   -1.3330    1.2210 n         1 MOL     -0.035070
     75 C23        -5.6170   -2.1520    2.4430 c3        1 MOL     -0.358623
     76 C24        -4.3350   -2.8900    2.6130 c         1 MOL      0.773775
     77 O12        -4.2630   -3.7020    3.5160 o         1 MOL     -0.591227
     78 H34        -5.1230   -0.4900    1.1130 hn        1 MOL      0.119957
     79 H35        -6.4850   -2.7910    2.5850 h1        1 MOL      0.143750
     80 H36        -5.5330   -1.3890    3.2130 h1        1 MOL      0.143750
     81 N9         -3.3630   -2.6670    1.7110 n         1 MOL     -0.831121
     82 C25        -2.1760   -3.4470    1.5120 c3        1 MOL      0.222626
     83 C26        -0.9650   -2.5430    1.3360 c         1 MOL      0.578837
     84 O13        -0.9190   -1.6600    0.4840 o         1 MOL     -0.654782
     85 C27        -2.4690   -4.4200    0.3560 c3        1 MOL      0.104549
     86 C28        -3.5320   -5.4400    0.6720 ca        1 MOL     -0.224610
     87 C29        -4.8180   -5.2550    0.0380 ca        1 MOL      0.063161
     88 C30        -3.3990   -6.5040    1.5980 ca        1 MOL      0.063161
     89 C31        -5.8230   -6.2410    0.1350 ca        1 MOL     -0.444382
     90 C32        -4.4800   -7.4330    1.8230 ca        1 MOL     -0.444382
     91 C33        -5.6720   -7.2620    1.1040 ca        1 MOL      0.513962
     92 O14        -6.6900   -8.0840    1.3500 oh        1 MOL     -0.508595
     93 H37        -3.5920   -2.0890    0.9140 hn        1 MOL      0.672191
     94 H38        -2.0260   -4.0950    2.3740 h1        1 MOL      0.038806
     95 H39        -1.5510   -4.9630    0.1430 hc        1 MOL     -0.036899
     96 H40        -2.7230   -3.7910   -0.4950 hc        1 MOL     -0.036899
     97 H41        -4.9260   -4.4410   -0.6620 ha        1 MOL      0.073707
     98 H42        -2.4900   -6.6820    2.1470 ha        1 MOL      0.073707
     99 H43        -6.7710   -6.2490   -0.3760 ha        1 MOL      0.184672
    100 H44        -4.4920   -8.2180    2.5550 ha        1 MOL      0.184672
    101 H45        -6.5580   -8.6740    2.0980 ho        1 MOL      0.361605
    102 N10         0.1860   -2.8550    1.9110 n         1 MOL     -0.586185
    103 C34         1.4470   -2.1500    1.7010 c3        1 MOL      0.238620
    104 C35         2.5790   -3.1340    1.2900 c         1 MOL      0.497232
    105 O15         2.9070   -4.0280    2.0790 o         1 MOL     -0.521526
    106 C36         1.8250   -1.3260    3.0280 c3        1 MOL     -0.010030
    107 C37         0.9650   -0.0240    3.1080 c3        1 MOL     -0.011983
    108 C38         3.3230   -1.0350    3.1830 c3        1 MOL     -0.013176
    109 C39         1.0890    0.6180    4.4900 c3        1 MOL     -0.456589
    110 H46         0.1920   -3.6320    2.5620 hn        1 MOL      0.303609
    111 H47         1.3570   -1.4220    0.8970 h1        1 MOL     -0.121261
    112 H48         1.5500   -2.0320    3.8110 hc        1 MOL      0.018114
    113 H49        -0.0330   -0.3780    2.8580 hc        1 MOL      0.107374
    114 H50         1.3680    0.6570    2.3570 hc        1 MOL      0.107374
    115 H51         3.5680   -0.2850    2.4250 hc        1 MOL      0.004460
    116 H52         3.5220   -0.5470    4.1420 hc        1 MOL      0.004460
    117 H53         3.8940   -1.9600    3.1170 hc        1 MOL      0.004460
    118 H54         1.9290    1.3140    4.4250 hc        1 MOL      0.128165
    119 H55         0.1330    1.1300    4.5410 hc        1 MOL      0.128165
    120 H56         1.3010   -0.1070    5.2860 hc        1 MOL      0.128165
    121 N11         3.0450   -2.9680    0.0380 n         1 MOL     -0.355331
    122 C40         4.0840   -3.7630   -0.6500 c3        1 MOL     -0.070694
    123 C41         5.4430   -3.3680   -0.1230 c         1 MOL      0.425847
    124 O16         5.5960   -2.4430    0.6260 o         1 MOL     -0.342557
    125 C42         4.0810   -3.6640   -2.1910 c3        1 MOL     -0.037928
    126 O17         4.6940   -2.4590   -2.7170 oh        1 MOL     -0.474746
    127 H57         2.5640   -2.2560   -0.4940 hn        1 MOL      0.297634
    128 H58         3.9900   -4.8340   -0.4780 h1        1 MOL      0.106663
    129 H59         3.0810   -3.6610   -2.6310 h1        1 MOL      0.081814
    130 H60         4.5930   -4.5220   -2.6230 h1        1 MOL      0.081814
    131 H61         5.1570   -2.6880   -3.5250 ho        1 MOL      0.375918
    132 N12         6.5030   -4.0890   -0.5020 n         1 MOL     -0.408274
    133 C43         7.8780   -3.9350   -0.1200 c3        1 MOL      0.186044
    134 C44         8.3930   -2.5440   -0.5430 c         1 MOL      0.427682
    135 O18         9.0290   -1.9310    0.3510 o         1 MOL     -0.523986
    136 C45         8.7510   -4.9830   -0.7940 c3        1 MOL     -0.233729
    137 H62         6.3110   -4.9120   -1.0660 hn        1 MOL      0.252310
    138 H63         7.9270   -4.0170    0.9690 h1        1 MOL      0.063919
    139 H64         8.8400   -4.8260   -1.8710 hc        1 MOL      0.065987
    140 H65         9.7290   -4.7500   -0.3730 hc        1 MOL      0.065987
    141 H66         8.4200   -6.0030   -0.6000 hc        1 MOL      0.065987
    142 N13         8.1180   -2.1140   -1.7490 n         1 MOL     -0.311266
    143 C46         8.4410   -0.7050   -2.0720 c3        1 MOL      0.091243
    144 C47         7.5010    0.4220   -1.4900 c         1 MOL      0.337661
    145 O19         7.9490    1.5350   -1.3190 o         1 MOL     -0.467747
    146 C48         8.6230   -0.5980   -3.6300 c3        1 MOL     -0.166445
    147 H67         7.6170   -2.6910   -2.4070 hn        1 MOL      0.212049
    148 H68         9.4250   -0.5260   -1.6290 h1        1 MOL      0.084599
    149 H69         9.1190   -1.4530   -4.0990 hc        1 MOL      0.053452
    150 H70         7.6620   -0.3830   -4.0910 hc        1 MOL      0.053452
    151 H71         9.2310    0.2820   -3.8760 hc        1 MOL      0.053452
    152 N14         6.1770    0.1280   -1.2510 n         1 MOL     -0.129006
    153 C49         5.2440    1.0560   -0.5640 c3        1 MOL     -0.070940
    154 C50         5.6960    1.3140    0.9150 c         1 MOL      0.467790
    155 O20         5.7840    2.4290    1.2810 o         1 MOL     -0.556143
    156 C51         3.8120    0.5060   -0.5130 c3        1 MOL      0.035386
    157 C52         3.1830    0.5000   -1.9430 c3        1 MOL     -0.160225
    158 C53         1.7440    0.2000   -1.9330 c         1 MOL      0.887223
    159 O21         1.2640   -0.7040   -2.5640 o         1 MOL     -0.812002
    160 O22         0.9230    0.9420   -1.2810 o         1 MOL     -0.812002
    161 H72         5.7940   -0.6720   -1.7390 hn        1 MOL      0.128344
    162 H73         5.2320    2.0180   -1.0610 h1        1 MOL      0.088986
    163 H74         3.1920    1.0500    0.2030 hc        1 MOL      0.028303
    164 H75         3.7040   -0.4820   -0.0790 hc        1 MOL      0.028303
    165 H76         3.6900   -0.1370   -2.6640 hc        1 MOL      0.011416
    166 H77         3.3290    1.5160   -2.3150 hc        1 MOL      0.011416
    167 N15         6.1980    0.2850    1.5780 n         1 MOL     -0.014324
    168 C54         6.8730    0.3080    2.8980 c3        1 MOL     -0.192036
    169 H78         6.5350   -0.5390    3.4930 h1        1 MOL      0.080874
    170 H79         7.9520    0.2440    2.7550 h1        1 MOL      0.080874
    171 H80         6.6280    1.2350    3.4150 h1        1 MOL      0.080874
    172 H81         6.1190   -0.5990    1.0970 hn        1 MOL      0.029779
    173 Ca1        -1.2820   -0.3110   -1.7050 Ca        1 MOL      1.759908
    174 O23        -1.0890   -1.0060   -4.4600 oh        1 MOL     -0.784761
    175 O24        -0.8700   -2.8390   -2.2620 oh        1 MOL     -0.784761
    176 H82        -1.5350   -1.2670   -5.2670 ho        1 MOL      0.391341
    177 H83        -0.2320   -3.3480   -1.7590 ho        1 MOL      0.391341
    178 H84        -0.1600   -1.1520   -4.6420 ho        1 MOL      0.391341
    179 H85        -0.5730   -2.9260   -3.1760 ho        1 MOL      0.391341
@<TRIPOS>BOND
     1    1    2 1   
     2    1    4 1   
     3    1    5 1   
     4    1    6 1   
     5    2    3 2   
     6    2    7 1   
     7    7    8 1   
     8    7   15 1   
     9    8    9 1   
    10    8   11 1   
    11    8   16 1   
    12    9   10 2   
    13    9   19 1   
    14   11   12 1   
    15   11   17 1   
    16   11   18 1   
    17   12   13 1   
    18   12   14 1   
    19   19   20 1   
    20   19   28 1   
    21   20   21 1   
    22   20   23 1   
    23   20   29 1   
    24   21   22 2   
    25   21   41 1   
    26   23   24 1   
    27   23   30 1   
    28   23   31 1   
    29   24   25 1   
    30   24   32 1   
    31   24   33 1   
    32   25   26 1   
    33   25   34 1   
    34   25   35 1   
    35   26   27 1   
    36   26   36 1   
    37   26   37 1   
    38   27   38 1   
    39   27   39 1   
    40   27   40 1   
    41   41   42 1   
    42   41   49 1   
    43   42   43 1   
    44   42   45 1   
    45   42   50 1   
    46   43   44 2   
    47   43   53 1   
    48   45   46 1   
    49   45   51 1   
    50   45   52 1   
    51   46   47 1   
    52   46   48 1   
    53   53   54 1   
    54   53   57 1   
    55   54   55 1   
    56   54   58 1   
    57   54   59 1   
    58   55   56 2   
    59   55   60 1   
    60   60   61 1   
    61   60   68 1   
    62   61   62 1   
    63   61   64 1   
    64   61   69 1   
    65   62   63 2   
    66   62   74 1   
    67   64   65 1   
    68   64   70 1   
    69   64   71 1   
    70   65   66 1   
    71   65   67 2   
    72   66   72 1   
    73   66   73 1   
    74   74   75 1   
    75   74   78 1   
    76   75   76 1   
    77   75   79 1   
    78   75   80 1   
    79   76   77 2   
    80   76   81 1   
    81   81   82 1   
    82   81   93 1   
    83   82   83 1   
    84   82   85 1   
    85   82   94 1   
    86   83   84 2   
    87   83  102 1   
    88   85   86 1   
    89   85   95 1   
    90   85   96 1   
    91   86   87 ar  
    92   86   88 ar  
    93   87   89 ar  
    94   87   97 1   
    95   88   90 ar  
    96   88   98 1   
    97   89   91 ar  
    98   89   99 1   
    99   90   91 ar  
   100   90  100 1   
   101   91   92 1   
   102   92  101 1   
   103  102  103 1   
   104  102  110 1   
   105  103  104 1   
   106  103  106 1   
   107  103  111 1   
   108  104  105 2   
   109  104  121 1   
   110  106  107 1   
   111  106  108 1   
   112  106  112 1   
   113  107  109 1   
   114  107  113 1   
   115  107  114 1   
   116  108  115 1   
   117  108  116 1   
   118  108  117 1   
   119  109  118 1   
   120  109  119 1   
   121  109  120 1   
   122  121  122 1   
   123  121  127 1   
   124  122  123 1   
   125  122  125 1   
   126  122  128 1   
   127  123  124 2   
   128  123  132 1   
   129  125  126 1   
   130  125  129 1   
   131  125  130 1   
   132  126  131 1   
   133  132  133 1   
   134  132  137 1   
   135  133  134 1   
   136  133  136 1   
   137  133  138 1   
   138  134  135 2   
   139  134  142 1   
   140  136  139 1   
   141  136  140 1   
   142  136  141 1   
   143  142  143 1   
   144  142  147 1   
   145  143  144 1   
   146  143  146 1   
   147  143  148 1   
   148  144  145 2   
   149  144  152 1   
   150  146  149 1   
   151  146  150 1   
   152  146  151 1   
   153  152  153 1   
   154  152  161 1   
   155  153  154 1   
   156  153  156 1   
   157  153  162 1   
   158  154  155 2   
   159  154  167 1   
   160  156  157 1   
   161  156  163 1   
   162  156  164 1   
   163  157  158 1   
   164  157  165 1   
   165  157  166 1   
   166  158  159 1   
   167  158  160 1   
   168  167  168 1   
   169  167  172 1   
   170  168  169 1   
   171  168  170 1   
   172  168  171 1   
   173  174  176 1   
   174  174  178 1   
   175  175  177 1   
   176  175  179 1   
@<TRIPOS>SUBSTRUCTURE
     1 MOL         1 TEMP              0 ****  ****    0 ROOT
