@<TRIPOS>MOLECULE
MOL
  175   173     1     0     0
SMALL
resp


@<TRIPOS>ATOM
      1 C1          0.5080    3.4180    5.6600 c3        1 MOL     -0.389372
      2 C2         -0.0750    3.6990    4.2490 c         1 MOL      0.669291
      3 O1          0.6970    3.8480    3.3130 o         1 MOL     -0.525391
      4 H1          1.5930    3.5100    5.6300 hc        1 MOL      0.099040
      5 H2          0.1030    4.1390    6.3710 hc        1 MOL      0.099040
      6 H3          0.2370    2.4090    5.9710 hc        1 MOL      0.099040
      7 N1         -1.3740    3.6660    3.9840 n         1 MOL     -0.672167
      8 C3         -1.8910    3.5520    2.6310 c3        1 MOL      0.326605
      9 C4         -1.8980    4.8130    1.7490 c         1 MOL      0.397274
     10 O2         -1.5030    5.8950    2.1750 o         1 MOL     -0.519336
     11 C5         -3.3720    3.0850    2.9590 c3        1 MOL     -0.390798
     12 C6         -3.9430    2.2340    1.8380 c         1 MOL      0.815209
     13 O3         -3.3670    2.0610    0.7530 o         1 MOL     -0.683471
     14 O4         -4.9970    1.6070    1.9930 o         1 MOL     -0.683471
     15 H4         -2.0030    3.4850    4.7520 hn        1 MOL      0.330159
     16 H5         -1.3750    2.7790    2.0740 h1        1 MOL      0.123870
     17 H6         -4.0980    3.8610    3.2070 hc        1 MOL      0.074947
     18 H7         -3.3600    2.3420    3.7620 hc        1 MOL      0.074947
     19 N2         -2.2580    4.6200    0.5250 n         1 MOL     -0.312200
     20 C7         -2.6870    5.6970   -0.3910 c3        1 MOL      0.291867
     21 C8         -3.8370    5.3300   -1.3850 c         1 MOL      0.423302
     22 O5         -4.3230    6.2210   -2.1160 o         1 MOL     -0.527685
     23 C9         -1.5180    6.4170   -1.0520 c3        1 MOL     -0.202863
     24 H8         -2.6390    3.7100    0.3380 hn        1 MOL      0.094407
     25 H9         -3.0060    6.5450    0.2180 h1        1 MOL     -0.013395
     26 H10        -1.3560    5.8400   -1.9600 hc        1 MOL      0.054475
     27 H11        -1.6640    7.4630   -1.3050 hc        1 MOL      0.054475
     28 H12        -0.6610    6.3320   -0.3850 hc        1 MOL      0.054475
     29 N3         -4.3180    4.0150   -1.4220 n         1 MOL     -0.626738
     30 C10        -5.0560    3.5120   -2.5330 c3        1 MOL      0.369836
     31 C11        -6.1250    2.5380   -2.1160 c         1 MOL      0.293079
     32 O6         -6.9620    2.1730   -2.8870 o         1 MOL     -0.527069
     33 C12        -4.1050    2.8740   -3.5720 c3        1 MOL     -0.321909
     34 C13        -3.1860    1.7490   -3.0430 c         1 MOL      0.797387
     35 O7         -2.1810    1.4480   -3.7150 o         1 MOL     -0.719974
     36 O8         -3.4820    1.1910   -1.9740 o         1 MOL     -0.719974
     37 H13        -3.8720    3.3630   -0.7900 hn        1 MOL      0.431047
     38 H14        -5.4560    4.3760   -3.0680 h1        1 MOL      0.024389
     39 H15        -3.4410    3.6700   -3.8740 hc        1 MOL      0.063686
     40 H16        -4.7350    2.5070   -4.3850 hc        1 MOL      0.063686
     41 N4         -6.1330    2.1360   -0.8240 n         1 MOL     -0.181036
     42 C14        -7.2130    1.3100   -0.3060 c3        1 MOL     -0.145019
     43 C15        -7.2150   -0.1760   -0.8060 c         1 MOL      0.445413
     44 O9         -8.2940   -0.7420   -0.6980 o         1 MOL     -0.597551
     45 H17        -5.3370    2.3830   -0.2550 hn        1 MOL      0.079106
     46 H18        -8.1720    1.7910   -0.5060 h1        1 MOL      0.106196
     47 H19        -7.1640    1.3230    0.7840 h1        1 MOL      0.106196
     48 N5         -6.1820   -0.7010   -1.4770 n         1 MOL     -0.108742
     49 C16        -6.2660   -2.0650   -2.1160 c3        1 MOL     -0.021576
     50 C17        -6.3720   -3.2720   -1.1670 c         1 MOL      0.487233
     51 O10        -6.6050   -4.3720   -1.6420 o         1 MOL     -0.569425
     52 C18        -5.0990   -2.2190   -3.1200 c3        1 MOL     -0.085951
     53 C19        -3.7240   -1.9540   -2.5190 c         1 MOL      0.503896
     54 N6         -2.6780   -2.0730   -3.2680 n         1 MOL     -0.572163
     55 O11        -3.5800   -1.7530   -1.3350 o         1 MOL     -0.554107
     56 H20        -5.3310   -0.1700   -1.5280 hn        1 MOL      0.193304
     57 H21        -7.1330   -2.0600   -2.7880 h1        1 MOL      0.089931
     58 H22        -5.2890   -1.4680   -3.8900 hc        1 MOL      0.040048
     59 H23        -5.1600   -3.2130   -3.5690 hc        1 MOL      0.040048
     60 H24        -2.8910   -2.1060   -4.2560 hn        1 MOL      0.306280
     61 H25        -1.7230   -1.8470   -3.0160 hn        1 MOL      0.306280
     62 N7         -6.3470   -3.0640    0.1190 n         1 MOL     -0.250710
     63 C20        -6.3850   -4.0390    1.1990 c3        1 MOL     -0.099132
     64 C21        -5.0150   -4.5180    1.5970 c         1 MOL      0.446255
     65 O12        -4.9500   -5.4490    2.3610 o         1 MOL     -0.569809
     66 H26        -6.1700   -2.0760    0.2820 hn        1 MOL      0.185008
     67 H27        -7.1470   -4.8130    1.1740 h1        1 MOL      0.094780
     68 H28        -6.7450   -3.5440    2.0970 h1        1 MOL      0.094780
     69 N8         -3.9680   -4.0490    0.9330 n         1 MOL     -0.192531
     70 C22        -2.6100   -4.6030    1.0580 c3        1 MOL     -0.018463
     71 C23        -1.5530   -3.5410    1.3210 c         1 MOL      0.268566
     72 O13        -1.7140   -2.4510    0.7300 o         1 MOL     -0.324835
     73 C24        -2.2800   -5.4330   -0.1520 c3        1 MOL      0.720793
     74 C25        -3.1140   -6.6980   -0.2580 c3        1 MOL     -0.530106
     75 O14        -2.3280   -4.7990   -1.3550 oh        1 MOL     -0.638306
     76 H29        -4.0520   -3.2270    0.3520 hn        1 MOL      0.152368
     77 H30        -2.6380   -5.3100    1.8900 h1        1 MOL      0.024065
     78 H31        -1.2870   -5.7630    0.1180 h1        1 MOL     -0.144310
     79 H32        -1.9630   -3.9130   -1.2660 ho        1 MOL      0.349822
     80 H33        -4.0730   -6.4720   -0.7290 hc        1 MOL      0.123445
     81 H34        -2.5500   -7.4170   -0.8600 hc        1 MOL      0.123445
     82 H35        -3.2490   -7.0220    0.7740 hc        1 MOL      0.123445
     83 N9         -0.4260   -3.8980    1.8990 n         1 MOL     -0.322710
     84 C26         0.7170   -3.0070    1.9510 c3        1 MOL     -0.366078
     85 C27         1.4750   -3.2090    0.6470 c         1 MOL      0.589226
     86 O15         1.6970   -4.3330    0.1420 o         1 MOL     -0.591412
     87 C28         1.6520   -3.2800    3.1920 c3        1 MOL      0.281527
     88 C29         0.8230   -3.3140    4.4790 c3        1 MOL      0.016995
     89 C30         2.7530   -2.2130    3.2480 c3        1 MOL     -0.218769
     90 C31         1.4540   -3.8680    5.7420 c3        1 MOL     -0.287299
     91 H36        -0.4220   -4.8450    2.2470 hn        1 MOL      0.313640
     92 H37         0.3830   -1.9830    2.0840 h1        1 MOL      0.140971
     93 H38         2.1040   -4.2650    3.0590 hc        1 MOL     -0.019120
     94 H39        -0.0320   -3.9590    4.2670 hc        1 MOL      0.020671
     95 H40         0.4930   -2.3210    4.7670 hc        1 MOL      0.020671
     96 H41         3.3650   -2.2930    4.1410 hc        1 MOL      0.045362
     97 H42         3.4560   -2.4130    2.4420 hc        1 MOL      0.045362
     98 H43         2.4210   -1.1820    3.1340 hc        1 MOL      0.045362
     99 H44         1.5090   -4.9150    5.4510 hc        1 MOL      0.065241
    100 H45         2.4480   -3.4600    5.9070 hc        1 MOL      0.065241
    101 H46         0.8050   -3.6020    6.5740 hc        1 MOL      0.065241
    102 N10         1.9030   -2.1430    0.0660 n         1 MOL     -0.145773
    103 C32         2.7730   -2.0160   -1.0910 c3        1 MOL      0.070139
    104 C33         4.2060   -1.4220   -0.8230 c         1 MOL      0.321599
    105 O16         4.4190   -0.7540    0.1860 o         1 MOL     -0.270480
    106 C34         2.0280   -1.0850   -2.0990 c3        1 MOL     -0.243380
    107 C35         0.5860   -1.4190   -2.4340 c         1 MOL      0.774570
    108 O17        -0.2610   -1.0560   -1.6490 o         1 MOL     -0.693672
    109 O18         0.3710   -2.0530   -3.5470 o         1 MOL     -0.693672
    110 H47         1.6120   -1.2690    0.4820 hn        1 MOL      0.043343
    111 H48         2.8710   -2.9870   -1.5800 h1        1 MOL      0.067367
    112 H49         2.6350   -1.0190   -2.9930 hc        1 MOL      0.048362
    113 H50         1.9730   -0.1440   -1.5480 hc        1 MOL      0.048362
    114 N11         5.1610   -1.6410   -1.7320 n         1 MOL     -0.659501
    115 C36         6.5360   -1.2210   -1.4140 c3        1 MOL      0.587291
    116 C37         6.8520    0.2360   -1.2690 c         1 MOL      0.232881
    117 O19         7.6900    0.5640   -0.4340 o         1 MOL     -0.510997
    118 C38         7.4960   -1.8380   -2.4260 c3        1 MOL     -0.362221
    119 C39         8.9660   -1.8860   -2.0650 ca        1 MOL      0.115558
    120 C40         9.4090   -2.4660   -0.8380 ca        1 MOL     -0.132039
    121 C41         9.9220   -1.3410   -2.9670 ca        1 MOL     -0.132039
    122 C42        10.7840   -2.5400   -0.5560 ca        1 MOL     -0.152358
    123 C43        11.2860   -1.3190   -2.6030 ca        1 MOL     -0.152358
    124 C44        11.6720   -1.8820   -1.3620 ca        1 MOL     -0.077569
    125 H51         4.9800   -2.0650   -2.6330 hn        1 MOL      0.363261
    126 H52         6.7060   -1.5640   -0.3950 h1        1 MOL      0.017818
    127 H53         7.4150   -1.3500   -3.3990 hc        1 MOL      0.076491
    128 H54         7.0720   -2.8360   -2.4550 hc        1 MOL      0.076491
    129 H55         8.7120   -2.8840   -0.1170 ha        1 MOL      0.113343
    130 H56         9.7300   -0.9230   -3.9420 ha        1 MOL      0.113343
    131 H57        11.1060   -3.0340    0.3480 ha        1 MOL      0.118242
    132 H58        12.0820   -0.9040   -3.2140 ha        1 MOL      0.118242
    133 H59        12.6690   -1.8450   -0.9810 ha        1 MOL      0.092264
    134 N12         6.1820    1.2010   -1.8950 n         1 MOL     -0.022686
    135 C45         6.3040    2.6090   -1.5050 c3        1 MOL     -0.031184
    136 C46         5.5710    3.0790   -0.2150 c         1 MOL      0.211207
    137 O20         5.8930    4.1940    0.3210 o         1 MOL     -0.487372
    138 C47         5.7050    3.3050   -2.6970 c3        1 MOL     -0.020645
    139 C48         5.5190    2.3260   -3.8370 c3        1 MOL     -0.228879
    140 C49         5.2120    1.1420   -3.0040 c3        1 MOL     -0.029114
    141 H60         7.3490    2.9070   -1.4210 h1        1 MOL      0.106549
    142 H61         4.7630    3.7700   -2.4380 hc        1 MOL      0.041211
    143 H62         6.4210    4.0530   -3.0610 hc        1 MOL      0.041211
    144 H63         4.6930    2.6410   -4.4780 hc        1 MOL      0.092984
    145 H64         6.4750    2.0900   -4.3130 hc        1 MOL      0.092984
    146 H65         4.2000    1.2090   -2.6020 h1        1 MOL      0.056951
    147 H66         5.4170    0.1920   -3.4890 h1        1 MOL      0.056951
    148 N13         4.6990    2.2140    0.3250 n         1 MOL      0.003409
    149 C50         4.1780    2.3450    1.6550 c3        1 MOL     -0.141962
    150 C51         4.9410    1.6920    2.8260 c         1 MOL      0.475500
    151 O21         4.9260    2.1370    3.9710 o         1 MOL     -0.556552
    152 C52         2.7860    1.7070    1.5750 c3        1 MOL     -0.027221
    153 C53         1.9660    2.4930    0.5370 c3        1 MOL     -0.306331
    154 C54         0.5980    1.7750    0.5050 c         1 MOL      0.583013
    155 O22        -0.2500    1.9360   -0.4140 o         1 MOL     -0.710519
    156 O23         0.2550    0.8560    1.3290 o         1 MOL     -0.710519
    157 H67         4.4110    1.4550   -0.2710 hn        1 MOL      0.206304
    158 H68         4.0490    3.3880    1.9440 h1        1 MOL      0.107474
    159 H69         2.2620    1.7780    2.5370 hc        1 MOL      0.087348
    160 H70         2.8390    0.6430    1.3260 hc        1 MOL      0.087348
    161 H71         2.3980    2.3990   -0.4530 hc        1 MOL      0.136306
    162 H72         1.9160    3.5630    0.7130 hc        1 MOL      0.136306
    163 N14         5.5730    0.5800    2.5090 n         1 MOL     -0.068232
    164 C55         6.2890   -0.2530    3.4390 c3        1 MOL     -0.241158
    165 H73         7.3510   -0.0090    3.4010 h1        1 MOL      0.087956
    166 H74         5.9140   -0.0790    4.4480 h1        1 MOL      0.087956
    167 H75         6.1480   -1.3010    3.1750 h1        1 MOL      0.087956
    168 H76         5.4620    0.2570    1.5570 hn        1 MOL      0.020958
    169 Ca1        -1.9500    0.0480   -0.1610 Ca        1 MOL      1.680850
    170 O24        -1.7460   -0.1650    2.5980 oh        1 MOL     -0.774622
    171 H77        -0.9690    0.3860    2.6160 ho        1 MOL      0.365800
    172 H78        -2.1970    0.0220    3.4250 ho        1 MOL      0.365800
    173 O25        -4.4200   -0.8840    1.5790 oh        1 MOL     -0.774622
    174 H79        -4.6590    0.0290    1.6830 ho        1 MOL      0.365800
    175 H80        -4.7860   -1.3210    2.3530 ho        1 MOL      0.365800
@<TRIPOS>BOND
     1    1    2 1   
     2    1    4 1   
     3    1    5 1   
     4    1    6 1   
     5    2    3 2   
     6    2    7 1   
     7    7    8 1   
     8    7   15 1   
     9    8    9 1   
    10    8   11 1   
    11    8   16 1   
    12    9   10 2   
    13    9   19 1   
    14   11   12 1   
    15   11   17 1   
    16   11   18 1   
    17   12   13 1   
    18   12   14 1   
    19   19   20 1   
    20   19   24 1   
    21   20   21 1   
    22   20   23 1   
    23   20   25 1   
    24   21   22 2   
    25   21   29 1   
    26   23   26 1   
    27   23   27 1   
    28   23   28 1   
    29   29   30 1   
    30   29   37 1   
    31   30   31 1   
    32   30   33 1   
    33   30   38 1   
    34   31   32 2   
    35   31   41 1   
    36   33   34 1   
    37   33   39 1   
    38   33   40 1   
    39   34   35 1   
    40   34   36 1   
    41   41   42 1   
    42   41   45 1   
    43   42   43 1   
    44   42   46 1   
    45   42   47 1   
    46   43   44 2   
    47   43   48 1   
    48   48   49 1   
    49   48   56 1   
    50   49   50 1   
    51   49   52 1   
    52   49   57 1   
    53   50   51 2   
    54   50   62 1   
    55   52   53 1   
    56   52   58 1   
    57   52   59 1   
    58   53   54 1   
    59   53   55 2   
    60   54   60 1   
    61   54   61 1   
    62   62   63 1   
    63   62   66 1   
    64   63   64 1   
    65   63   67 1   
    66   63   68 1   
    67   64   65 2   
    68   64   69 1   
    69   69   70 1   
    70   69   76 1   
    71   70   71 1   
    72   70   73 1   
    73   70   77 1   
    74   71   72 2   
    75   71   83 1   
    76   73   74 1   
    77   73   75 1   
    78   73   78 1   
    79   74   80 1   
    80   74   81 1   
    81   74   82 1   
    82   75   79 1   
    83   83   84 1   
    84   83   91 1   
    85   84   85 1   
    86   84   87 1   
    87   84   92 1   
    88   85   86 2   
    89   85  102 1   
    90   87   88 1   
    91   87   89 1   
    92   87   93 1   
    93   88   90 1   
    94   88   94 1   
    95   88   95 1   
    96   89   96 1   
    97   89   97 1   
    98   89   98 1   
    99   90   99 1   
   100   90  100 1   
   101   90  101 1   
   102  102  103 1   
   103  102  110 1   
   104  103  104 1   
   105  103  106 1   
   106  103  111 1   
   107  104  105 2   
   108  104  114 1   
   109  106  107 1   
   110  106  112 1   
   111  106  113 1   
   112  107  108 1   
   113  107  109 1   
   114  114  115 1   
   115  114  125 1   
   116  115  116 1   
   117  115  118 1   
   118  115  126 1   
   119  116  117 2   
   120  116  134 1   
   121  118  119 1   
   122  118  127 1   
   123  118  128 1   
   124  119  120 ar  
   125  119  121 ar  
   126  120  122 ar  
   127  120  129 1   
   128  121  123 ar  
   129  121  130 1   
   130  122  124 ar  
   131  122  131 1   
   132  123  124 ar  
   133  123  132 1   
   134  124  133 1   
   135  134  135 1   
   136  134  140 1   
   137  135  136 1   
   138  135  138 1   
   139  135  141 1   
   140  136  137 2   
   141  136  148 1   
   142  138  139 1   
   143  138  142 1   
   144  138  143 1   
   145  139  140 1   
   146  139  144 1   
   147  139  145 1   
   148  140  146 1   
   149  140  147 1   
   150  148  149 1   
   151  148  157 1   
   152  149  150 1   
   153  149  152 1   
   154  149  158 1   
   155  150  151 2   
   156  150  163 1   
   157  152  153 1   
   158  152  159 1   
   159  152  160 1   
   160  153  154 1   
   161  153  161 1   
   162  153  162 1   
   163  154  155 1   
   164  154  156 1   
   165  163  164 1   
   166  163  168 1   
   167  164  165 1   
   168  164  166 1   
   169  164  167 1   
   170  170  171 1   
   171  170  172 1   
   172  173  174 1   
   173  173  175 1   
@<TRIPOS>SUBSTRUCTURE
     1 MOL         1 TEMP              0 ****  ****    0 ROOT
