@<TRIPOS>MOLECULE
MOL
  189   185     1     0     0
SMALL
resp


@<TRIPOS>ATOM
      1 C1          0.6560    1.5710    6.0070 c3        1 MOL     -0.343297
      2 C2          0.1010    1.6250    4.5930 c         1 MOL      0.786166
      3 O1          0.8420    1.8460    3.6540 o         1 MOL     -0.637569
      4 H1          1.1200    2.5280    6.2510 hc        1 MOL      0.086202
      5 H2         -0.1530    1.3710    6.7080 hc        1 MOL      0.086202
      6 H3          1.4020    0.7800    6.0760 hc        1 MOL      0.086202
      7 N1         -1.2660    1.4430    4.4000 n         1 MOL     -0.702232
      8 C3         -1.9200    1.4890    3.0420 c3        1 MOL      0.249475
      9 C4         -2.0020    2.9950    2.5150 c         1 MOL      0.423787
     10 O2         -2.4130    3.8330    3.3000 o         1 MOL     -0.534470
     11 C5         -3.3280    0.8490    3.0900 c3        1 MOL     -0.301968
     12 C6         -3.9960    0.7870    1.6710 c         1 MOL      0.867717
     13 O3         -3.2180    0.8160    0.7130 o         1 MOL     -0.749399
     14 O4         -5.2300    0.6000    1.4550 o         1 MOL     -0.749399
     15 H4         -1.8610    1.2270    5.1900 hn        1 MOL      0.353639
     16 H5         -1.2370    1.0660    2.3030 h1        1 MOL      0.015897
     17 H6         -4.0120    1.3430    3.7860 hc        1 MOL      0.070198
     18 H7         -3.1010   -0.1700    3.3780 hc        1 MOL      0.070198
     19 N2         -1.5140    3.2270    1.2610 n         1 MOL     -0.154127
     20 C7         -1.2950    4.6060    0.7440 c3        1 MOL     -0.140207
     21 C8         -2.1160    5.0630   -0.4350 c         1 MOL      0.732041
     22 O5         -2.0120    6.1650   -0.9310 o         1 MOL     -0.607990
     23 C9          0.2150    4.9400    0.4630 c3        1 MOL     -0.229627
     24 C10         1.1570    5.0250    1.6770 c3        1 MOL      0.277246
     25 C11         1.0230    6.4370    2.0790 c3        1 MOL     -0.133559
     26 C12         1.9640    6.7890    3.2330 c3        1 MOL     -0.060518
     27 N3          1.7890    5.9600    4.4840 n4        1 MOL     -0.317405
     28 H8         -1.1390    2.4820    0.6990 hn        1 MOL      0.197585
     29 H9         -1.6310    5.3510    1.4790 h1        1 MOL      0.056967
     30 H10         0.4280    5.7980   -0.1730 hc        1 MOL      0.065455
     31 H11         0.6030    4.0970   -0.0980 hc        1 MOL      0.065455
     32 H12         2.1770    4.8670    1.3410 hc        1 MOL     -0.026838
     33 H13         0.9470    4.3590    2.5060 hc        1 MOL     -0.026838
     34 H14        -0.0180    6.6080    2.3790 hc        1 MOL      0.079071
     35 H15         1.2570    7.0740    1.2370 hc        1 MOL      0.079071
     36 H16         1.8740    7.8490    3.4630 hx        1 MOL      0.092597
     37 H17         2.9610    6.6200    2.8140 hx        1 MOL      0.092597
     38 H18         2.3280    6.3590    5.2420 hn        1 MOL      0.320425
     39 H19         0.8310    5.9750    4.7990 hn        1 MOL      0.320425
     40 H20         2.0660    4.9860    4.4400 hn        1 MOL      0.320425
     41 N4         -3.0050    4.1670   -0.8080 n         1 MOL     -0.514323
     42 C13        -3.9440    4.4090   -1.8950 c3        1 MOL      0.035763
     43 C14        -5.3160    3.7530   -1.8040 c         1 MOL      0.414819
     44 O6         -6.2780    4.1990   -2.4580 o         1 MOL     -0.529919
     45 C15        -3.4270    3.9930   -3.2580 c3        1 MOL     -0.179464
     46 C16        -2.8160    2.5900   -3.3130 c         1 MOL      0.765022
     47 O7         -2.9600    1.7310   -2.3810 o         1 MOL     -0.711449
     48 O8         -2.0990    2.4240   -4.3400 o         1 MOL     -0.711449
     49 H21        -2.7430    3.2350   -0.5320 hn        1 MOL      0.263782
     50 H22        -4.1680    5.4710   -1.9590 h1        1 MOL      0.099130
     51 H23        -2.5960    4.6730   -3.4770 hc        1 MOL      0.059865
     52 H24        -4.1950    4.1010   -4.0210 hc        1 MOL      0.059865
     53 N5         -5.4540    2.7430   -0.9180 n         1 MOL     -0.112616
     54 C17        -6.7410    2.3630   -0.3920 c3        1 MOL     -0.135689
     55 C18        -7.4330    1.0070   -0.8360 c         1 MOL      0.518347
     56 O9         -8.6590    0.8360   -0.8160 o         1 MOL     -0.581103
     57 H25        -4.6630    2.3820   -0.4120 hn        1 MOL      0.098249
     58 H26        -7.4160    3.1870   -0.6230 h1        1 MOL      0.082369
     59 H27        -6.7510    2.3300    0.6960 h1        1 MOL      0.082369
     60 N6         -6.5940    0.1930   -1.4710 n         1 MOL     -0.244648
     61 C19        -6.9760   -1.1630   -1.9960 c3        1 MOL     -0.044423
     62 C20        -6.9980   -2.2270   -0.8910 c         1 MOL      0.443848
     63 O10        -7.3110   -3.3550   -1.1180 o         1 MOL     -0.493787
     64 C21        -6.0330   -1.5550   -3.2100 c3        1 MOL     -0.205642
     65 C22        -4.5120   -1.7330   -2.8300 c         1 MOL      0.728771
     66 O11        -3.6500   -1.5460   -3.6820 o         1 MOL     -0.694505
     67 O12        -4.2460   -1.8200   -1.6330 o         1 MOL     -0.694505
     68 H28        -5.6060    0.4240   -1.4770 hn        1 MOL      0.144457
     69 H29        -7.9950   -1.0750   -2.3870 h1        1 MOL      0.131335
     70 H30        -6.1160   -0.8840   -4.0650 hc        1 MOL      0.061325
     71 H31        -6.4640   -2.5310   -3.4470 hc        1 MOL      0.061325
     72 N7         -6.7890   -1.8600    0.4370 n         1 MOL     -0.269639
     73 C23        -6.9140   -2.7310    1.5940 c3        1 MOL     -0.173899
     74 C24        -5.7340   -3.7520    1.6860 c         1 MOL      0.506360
     75 O13        -5.8330   -4.8350    2.2710 o         1 MOL     -0.547078
     76 H32        -6.6010   -0.8770    0.6100 hn        1 MOL      0.281239
     77 H33        -7.9330   -3.0930    1.6930 h1        1 MOL      0.103242
     78 H34        -6.7170   -2.0610    2.4330 h1        1 MOL      0.103242
     79 N8         -4.5890   -3.3960    1.1020 n         1 MOL     -0.254093
     80 C25        -3.4480   -4.2690    0.8020 c3        1 MOL     -0.322479
     81 C26        -2.1500   -3.4260    0.7990 c         1 MOL      0.825657
     82 O14        -2.1370   -2.2490    0.4030 o         1 MOL     -0.773785
     83 C27        -3.5160   -5.1170   -0.4580 c3        1 MOL      0.636670
     84 C28        -4.6470   -6.1440   -0.6300 c3        1 MOL     -0.550991
     85 O15        -3.4550   -4.3480   -1.5600 oh        1 MOL     -0.665811
     86 H35        -4.5190   -2.4590    0.7430 hn        1 MOL      0.210530
     87 H36        -3.4310   -4.9520    1.6530 h1        1 MOL      0.088019
     88 H37        -2.6240   -5.7210   -0.3340 h1        1 MOL     -0.067438
     89 H38        -3.9320   -3.5130   -1.4720 ho        1 MOL      0.413031
     90 H39        -4.7630   -6.7730    0.2580 hc        1 MOL      0.138647
     91 H40        -5.6350   -5.6820   -0.6960 hc        1 MOL      0.138647
     92 H41        -4.4190   -6.7370   -1.5140 hc        1 MOL      0.138647
     93 N9         -1.0930   -3.9800    1.2800 n         1 MOL     -0.481165
     94 C29         0.2080   -3.3250    1.5370 c3        1 MOL     -0.090332
     95 C30         1.3510   -3.8650    0.5750 c         1 MOL      0.494290
     96 O16         1.5370   -5.0580    0.4610 o         1 MOL     -0.548331
     97 C31         0.6460   -3.3970    2.9960 c3        1 MOL      0.339166
     98 C32        -0.4330   -2.7880    3.9150 c3        1 MOL      0.018566
     99 C33         1.9840   -2.6020    3.1520 c3        1 MOL     -0.442720
    100 C34        -0.0780   -3.2860    5.3260 c3        1 MOL     -0.286548
    101 H42        -1.2510   -4.8040    1.8440 hn        1 MOL      0.274337
    102 H43         0.1760   -2.2420    1.3740 h1        1 MOL      0.113529
    103 H44         0.8590   -4.4310    3.2920 hc        1 MOL     -0.021176
    104 H45        -1.4330   -3.1090    3.6330 hc        1 MOL      0.013150
    105 H46        -0.3590   -1.7020    3.8520 hc        1 MOL      0.013150
    106 H47         2.2830   -2.3400    4.1610 hc        1 MOL      0.086622
    107 H48         2.7890   -3.2680    2.8390 hc        1 MOL      0.086622
    108 H49         1.9850   -1.6720    2.5800 hc        1 MOL      0.086622
    109 H50        -0.7460   -2.9510    6.1100 hc        1 MOL      0.068878
    110 H51        -0.0060   -4.3740    5.3230 hc        1 MOL      0.068878
    111 H52         0.8430   -2.8200    5.6630 hc        1 MOL      0.068878
    112 N10         2.1250   -3.0070   -0.1090 n         1 MOL     -0.151739
    113 C35         3.2440   -3.3930   -0.9700 c3        1 MOL     -0.067597
    114 C36         4.6770   -3.2100   -0.2700 c         1 MOL      0.351730
    115 O17         4.7340   -2.5950    0.8180 o         1 MOL     -0.387351
    116 C37         3.3290   -2.5260   -2.2580 c3        1 MOL      0.157572
    117 C38         2.1400   -2.6380   -3.2710 c3        1 MOL     -0.317237
    118 O18         3.5020   -1.1610   -1.9290 oh        1 MOL     -0.569668
    119 H53         1.7380   -2.0790   -0.1660 hn        1 MOL      0.236687
    120 H54         3.2470   -4.4530   -1.2380 h1        1 MOL      0.078781
    121 H55         4.1940   -2.8710   -2.8340 h1        1 MOL      0.049923
    122 H56         2.6540   -0.7570   -1.7170 ho        1 MOL      0.394700
    123 H57         2.4590   -2.1680   -4.1960 hc        1 MOL      0.099430
    124 H58         1.9960   -3.6840   -3.5640 hc        1 MOL      0.099430
    125 H59         1.2380   -2.2350   -2.8090 hc        1 MOL      0.099430
    126 N11         5.7480   -3.5990   -0.9550 n         1 MOL     -0.239618
    127 C39         7.1540   -3.1750   -0.5600 c3        1 MOL     -0.411856
    128 C40         7.4700   -1.7280   -0.4720 c         1 MOL      0.715356
    129 O19         8.0700   -1.4290    0.5420 o         1 MOL     -0.526106
    130 C41         8.2040   -3.9100   -1.4590 c3        1 MOL      0.349950
    131 C42         8.1540   -5.3980   -1.4540 c3        1 MOL     -0.299710
    132 O20         8.1010   -3.4250   -2.7130 oh        1 MOL     -0.620427
    133 H60         5.5560   -4.2330   -1.7110 hn        1 MOL      0.273771
    134 H61         7.2270   -3.6170    0.4370 h1        1 MOL      0.183163
    135 H62         9.1910   -3.6660   -1.0500 h1        1 MOL      0.021770
    136 H63         8.6700   -3.9790   -3.2610 ho        1 MOL      0.404666
    137 H64         8.3710   -5.8120   -0.4710 hc        1 MOL      0.085301
    138 H65         7.2190   -5.7580   -1.8730 hc        1 MOL      0.085301
    139 H66         8.9670   -5.8750   -2.0080 hc        1 MOL      0.085301
    140 N12         6.8580   -0.9110   -1.3690 n         1 MOL     -0.486278
    141 C43         7.0530    0.5170   -1.3410 c3        1 MOL     -0.020872
    142 C44         6.3570    1.1610   -0.1250 c         1 MOL      0.187634
    143 O21         6.7780    2.2030    0.4500 o         1 MOL     -0.525288
    144 C45         6.5360    1.1770   -2.5830 c3        1 MOL      0.074246
    145 C46         6.4140    2.7640   -2.5110 c3        1 MOL     -0.042367
    146 C47         6.1820    3.3330   -3.9200 c3        1 MOL      0.002650
    147 C48         6.0610    4.8760   -3.9030 c3        1 MOL     -0.000372
    148 N13         5.8730    5.4150   -5.2540 n4        1 MOL     -0.236472
    149 H67         6.1590   -1.3650   -1.9490 hn        1 MOL      0.325599
    150 H68         8.1370    0.6310   -1.2380 h1        1 MOL      0.119673
    151 H69         5.5150    0.8010   -2.6780 hc        1 MOL      0.003171
    152 H70         7.1030    0.9320   -3.4830 hc        1 MOL      0.003171
    153 H71         7.4030    3.1330   -2.2340 hc        1 MOL      0.021183
    154 H72         5.6040    3.0480   -1.8450 hc        1 MOL      0.021183
    155 H73         5.2280    2.9260   -4.2660 hc        1 MOL      0.025547
    156 H74         6.8910    3.0260   -4.6920 hc        1 MOL      0.025547
    157 H75         6.9540    5.3550   -3.4950 hx        1 MOL      0.096498
    158 H76         5.1800    5.2640   -3.3960 hx        1 MOL      0.096498
    159 H77         6.1180    6.3900   -5.2720 hn        1 MOL      0.295563
    160 H78         6.5020    4.8830   -5.8370 hn        1 MOL      0.295563
    161 H79         4.9740    5.2030   -5.6680 hn        1 MOL      0.295563
    162 N14         5.1570    0.6840    0.2230 n         1 MOL      0.508542
    163 C49         4.3250    1.2530    1.3230 c3        1 MOL     -0.300746
    164 C50         4.8480    0.8220    2.6730 c         1 MOL      0.441190
    165 O22         4.9410    1.7080    3.5070 o         1 MOL     -0.538572
    166 C51         2.8860    0.7110    1.0780 c3        1 MOL     -0.017987
    167 C52         2.2550    1.4600   -0.0780 c3        1 MOL     -0.080105
    168 C53         0.9090    0.7460   -0.4730 c         1 MOL      0.663532
    169 O23         0.9690   -0.4660   -0.7520 o         1 MOL     -0.714392
    170 O24        -0.2010    1.3410   -0.4480 o         1 MOL     -0.714392
    171 H80         4.8500   -0.1700   -0.2310 hn        1 MOL     -0.131839
    172 H81         4.2560    2.3400    1.3040 h1        1 MOL      0.094737
    173 H82         2.2590    0.9710    1.9280 hc        1 MOL      0.087582
    174 H83         2.7800   -0.3680    0.9690 hc        1 MOL      0.087582
    175 H84         2.9170    1.6130   -0.9400 hc        1 MOL     -0.003215
    176 H85         2.0540    2.4710    0.2810 hc        1 MOL     -0.003215
    177 N15         5.2820   -0.4370    2.8370 n         1 MOL     -0.133149
    178 C54         6.0650   -0.9430    3.9970 c3        1 MOL     -0.219352
    179 H86         6.5390   -0.1050    4.5080 h1        1 MOL      0.099452
    180 H87         5.3990   -1.4590    4.6880 h1        1 MOL      0.099452
    181 H88         6.8320   -1.6340    3.6460 h1        1 MOL      0.099452
    182 H89         5.2780   -1.0650    2.0420 hn        1 MOL      0.138471
    183 Ca1        -2.0010   -0.3500   -1.2840 Ca        1 MOL      1.808096
    184 O25        -0.7160    0.0620   -3.6560 oh        1 MOL     -0.874110
    185 O26        -1.3390   -2.6400   -2.4070 oh        1 MOL     -0.874110
    186 H90         0.0360    0.1570   -4.2440 ho        1 MOL      0.405163
    187 H91        -2.0710   -3.2520   -2.3850 ho        1 MOL      0.405163
    188 H92        -1.3710    0.6720   -3.9850 ho        1 MOL      0.405163
    189 H93        -1.1010   -2.5730   -3.3320 ho        1 MOL      0.405163
@<TRIPOS>BOND
     1    1    2 1   
     2    1    4 1   
     3    1    5 1   
     4    1    6 1   
     5    2    3 2   
     6    2    7 1   
     7    7    8 1   
     8    7   15 1   
     9    8    9 1   
    10    8   11 1   
    11    8   16 1   
    12    9   10 2   
    13    9   19 1   
    14   11   12 1   
    15   11   17 1   
    16   11   18 1   
    17   12   13 1   
    18   12   14 1   
    19   19   20 1   
    20   19   28 1   
    21   20   21 1   
    22   20   23 1   
    23   20   29 1   
    24   21   22 2   
    25   21   41 1   
    26   23   24 1   
    27   23   30 1   
    28   23   31 1   
    29   24   25 1   
    30   24   32 1   
    31   24   33 1   
    32   25   26 1   
    33   25   34 1   
    34   25   35 1   
    35   26   27 1   
    36   26   36 1   
    37   26   37 1   
    38   27   38 1   
    39   27   39 1   
    40   27   40 1   
    41   41   42 1   
    42   41   49 1   
    43   42   43 1   
    44   42   45 1   
    45   42   50 1   
    46   43   44 2   
    47   43   53 1   
    48   45   46 1   
    49   45   51 1   
    50   45   52 1   
    51   46   47 1   
    52   46   48 1   
    53   53   54 1   
    54   53   57 1   
    55   54   55 1   
    56   54   58 1   
    57   54   59 1   
    58   55   56 2   
    59   55   60 1   
    60   60   61 1   
    61   60   68 1   
    62   61   62 1   
    63   61   64 1   
    64   61   69 1   
    65   62   63 2   
    66   62   72 1   
    67   64   65 1   
    68   64   70 1   
    69   64   71 1   
    70   65   66 1   
    71   65   67 1   
    72   72   73 1   
    73   72   76 1   
    74   73   74 1   
    75   73   77 1   
    76   73   78 1   
    77   74   75 2   
    78   74   79 1   
    79   79   80 1   
    80   79   86 1   
    81   80   81 1   
    82   80   83 1   
    83   80   87 1   
    84   81   82 2   
    85   81   93 1   
    86   83   84 1   
    87   83   85 1   
    88   83   88 1   
    89   84   90 1   
    90   84   91 1   
    91   84   92 1   
    92   85   89 1   
    93   93   94 1   
    94   93  101 1   
    95   94   95 1   
    96   94   97 1   
    97   94  102 1   
    98   95   96 2   
    99   95  112 1   
   100   97   98 1   
   101   97   99 1   
   102   97  103 1   
   103   98  100 1   
   104   98  104 1   
   105   98  105 1   
   106   99  106 1   
   107   99  107 1   
   108   99  108 1   
   109  100  109 1   
   110  100  110 1   
   111  100  111 1   
   112  112  113 1   
   113  112  119 1   
   114  113  114 1   
   115  113  116 1   
   116  113  120 1   
   117  114  115 2   
   118  114  126 1   
   119  116  117 1   
   120  116  118 1   
   121  116  121 1   
   122  117  123 1   
   123  117  124 1   
   124  117  125 1   
   125  118  122 1   
   126  126  127 1   
   127  126  133 1   
   128  127  128 1   
   129  127  130 1   
   130  127  134 1   
   131  128  129 2   
   132  128  140 1   
   133  130  131 1   
   134  130  132 1   
   135  130  135 1   
   136  131  137 1   
   137  131  138 1   
   138  131  139 1   
   139  132  136 1   
   140  140  141 1   
   141  140  149 1   
   142  141  142 1   
   143  141  144 1   
   144  141  150 1   
   145  142  143 2   
   146  142  162 1   
   147  144  145 1   
   148  144  151 1   
   149  144  152 1   
   150  145  146 1   
   151  145  153 1   
   152  145  154 1   
   153  146  147 1   
   154  146  155 1   
   155  146  156 1   
   156  147  148 1   
   157  147  157 1   
   158  147  158 1   
   159  148  159 1   
   160  148  160 1   
   161  148  161 1   
   162  162  163 1   
   163  162  171 1   
   164  163  164 1   
   165  163  166 1   
   166  163  172 1   
   167  164  165 2   
   168  164  177 1   
   169  166  167 1   
   170  166  173 1   
   171  166  174 1   
   172  167  168 1   
   173  167  175 1   
   174  167  176 1   
   175  168  169 1   
   176  168  170 1   
   177  177  178 1   
   178  177  182 1   
   179  178  179 1   
   180  178  180 1   
   181  178  181 1   
   182  184  186 1   
   183  184  188 1   
   184  185  187 1   
   185  185  189 1   
@<TRIPOS>SUBSTRUCTURE
     1 MOL         1 TEMP              0 ****  ****    0 ROOT
