@<TRIPOS>MOLECULE
MOL
  189   185     1     0     0
SMALL
resp


@<TRIPOS>ATOM
      1 C1          1.6920   -3.7070    5.7870 c3        1 MOL     -0.331706
      2 C2          1.9300   -3.2770    4.3110 c         1 MOL      0.722512
      3 O1          1.4240   -2.2620    3.7990 o         1 MOL     -0.609182
      4 H1          0.7100   -4.1700    5.8770 hc        1 MOL      0.081195
      5 H2          2.4590   -4.4220    6.0850 hc        1 MOL      0.081195
      6 H3          1.7400   -2.8310    6.4330 hc        1 MOL      0.081195
      7 N1          2.7530   -4.0530    3.6210 n         1 MOL     -0.536898
      8 C3          3.1600   -3.6800    2.3080 c3        1 MOL      0.142815
      9 C4          3.1860   -4.8390    1.4000 c         1 MOL      0.543797
     10 O2          3.3070   -6.0110    1.7700 o         1 MOL     -0.613737
     11 C5          4.5680   -3.1280    2.3830 c3        1 MOL     -0.228051
     12 C6          5.1370   -2.3850    1.2030 c         1 MOL      0.719769
     13 O3          4.2870   -1.8800    0.4920 o         1 MOL     -0.681041
     14 O4          6.3950   -2.2350    1.0950 o         1 MOL     -0.681041
     15 H4          3.0080   -4.9520    4.0050 hn        1 MOL      0.308508
     16 H5          2.5700   -2.8720    1.8740 h1        1 MOL      0.084488
     17 H6          5.2760   -3.9400    2.5740 hc        1 MOL      0.025990
     18 H7          4.6680   -2.4560    3.2400 hc        1 MOL      0.025990
     19 N2          2.9510   -4.5080    0.1390 n         1 MOL     -0.096318
     20 C7          3.1130   -5.4090   -1.0080 c3        1 MOL     -0.034910
     21 C8          3.9720   -4.7030   -2.0680 c         1 MOL      0.429519
     22 O5          4.6890   -5.4340   -2.7360 o         1 MOL     -0.604425
     23 C9          1.6440   -5.6330   -1.4830 c3        1 MOL      0.067934
     24 C10         0.8260   -6.4690   -0.4680 c3        1 MOL      0.335005
     25 C11         1.5980   -6.4500   -2.8040 c3        1 MOL     -0.410871
     26 C12         1.3460   -7.9440   -0.2010 c3        1 MOL     -0.227926
     27 H8          2.7150   -3.5450   -0.0830 hn        1 MOL     -0.122055
     28 H9          3.5730   -6.3320   -0.6550 h1        1 MOL      0.097161
     29 H10         1.1060   -4.6930   -1.5920 hc        1 MOL      0.039271
     30 H11        -0.2380   -6.5550   -0.7360 hc        1 MOL     -0.087492
     31 H12         0.7400   -5.9300    0.4680 hc        1 MOL     -0.087492
     32 H13         2.0160   -5.9260   -3.6690 hc        1 MOL      0.093004
     33 H14         2.1540   -7.3760   -2.7030 hc        1 MOL      0.093004
     34 H15         0.5430   -6.5820   -3.0520 hc        1 MOL      0.093004
     35 H16         1.0780   -8.4830   -1.1090 hc        1 MOL      0.035045
     36 H17         2.4080   -7.9930    0.0190 hc        1 MOL      0.035045
     37 H18         0.7760   -8.2800    0.6680 hc        1 MOL      0.035045
     38 N3          4.0760   -3.4350   -2.2690 n         1 MOL     -0.083350
     39 C13         4.6930   -2.8420   -3.4590 c3        1 MOL      0.005882
     40 C14         5.8980   -1.8660   -3.2160 c         1 MOL      0.256379
     41 O6          6.5920   -1.4330   -4.1760 o         1 MOL     -0.524782
     42 C15         3.6220   -2.0610   -4.2300 c3        1 MOL     -0.164316
     43 C16         2.8590   -1.0060   -3.3680 c         1 MOL      0.685899
     44 O7          3.2330   -0.5990   -2.2850 o         1 MOL     -0.688587
     45 O8          1.8230   -0.5840   -3.7850 o         1 MOL     -0.688587
     46 H19         3.4240   -2.8310   -1.7830 hn        1 MOL      0.256550
     47 H20         4.9810   -3.5690   -4.2250 h1        1 MOL      0.103644
     48 H21         2.9490   -2.8170   -4.6090 hc        1 MOL      0.044379
     49 H22         4.0030   -1.5580   -5.1240 hc        1 MOL      0.044379
     50 N4          6.1370   -1.4670   -1.9860 n         1 MOL     -0.079562
     51 C17         7.2110   -0.5780   -1.4940 c3        1 MOL      0.141735
     52 C18         7.1570    0.8530   -2.0880 c         1 MOL      0.317348
     53 O9          8.1770    1.3790   -2.5460 o         1 MOL     -0.577146
     54 H23         5.5140   -1.7360   -1.2410 hn        1 MOL      0.024514
     55 H24         8.2360   -0.9230   -1.6160 h1        1 MOL      0.004475
     56 H25         7.0940   -0.4950   -0.4220 h1        1 MOL      0.004475
     57 N5          5.9660    1.4360   -2.2390 n         1 MOL     -0.105991
     58 C19         5.6800    2.7750   -2.7400 c3        1 MOL     -0.116614
     59 C20         5.9170    3.9300   -1.7520 c         1 MOL      0.490302
     60 O10         5.8060    5.0530   -2.1160 o         1 MOL     -0.518943
     61 C21         4.2480    2.7250   -3.3480 c3        1 MOL     -0.236891
     62 C22         3.0860    2.6010   -2.3300 c         1 MOL      0.839016
     63 O11         3.3670    2.1480   -1.2110 o         1 MOL     -0.728930
     64 O12         1.9570    2.9640   -2.6770 o         1 MOL     -0.728930
     65 H26         5.2050    0.7750   -2.1230 hn        1 MOL      0.276859
     66 H27         6.3230    3.0120   -3.5850 h1        1 MOL      0.110318
     67 H28         4.1980    1.9950   -4.1570 hc        1 MOL      0.064482
     68 H29         4.2080    3.7370   -3.7660 hc        1 MOL      0.064482
     69 N6          6.2940    3.6430   -0.4790 n         1 MOL     -0.290321
     70 C23         6.5410    4.6880    0.5370 c3        1 MOL     -0.201800
     71 C24         5.2440    5.1240    1.3690 c         1 MOL      0.515355
     72 O13         5.3380    6.0870    2.1330 o         1 MOL     -0.586251
     73 H30         6.4230    2.6630   -0.2570 hn        1 MOL      0.224318
     74 H31         6.8880    5.6120    0.0870 h1        1 MOL      0.111006
     75 H32         7.2620    4.3300    1.2710 h1        1 MOL      0.111006
     76 N7          4.1120    4.4180    1.2520 n         1 MOL     -0.232514
     77 C25         2.8160    4.6940    1.9470 c3        1 MOL     -0.121943
     78 C26         2.1050    3.3680    2.3680 c         1 MOL      0.501202
     79 O14         2.6800    2.3020    2.1020 o         1 MOL     -0.505516
     80 C27         1.9600    5.4560    0.9030 c3        1 MOL     -0.007209
     81 C28         2.4060    6.9590    0.7470 c3        1 MOL     -0.293047
     82 C29         1.3080    7.6530   -0.1080 c         1 MOL      0.670022
     83 N8          1.2860    7.4670   -1.4040 n         1 MOL     -0.803465
     84 O15         0.5650    8.4440    0.4180 o         1 MOL     -0.594895
     85 H33         4.0980    3.6460    0.5960 hn        1 MOL      0.194511
     86 H34         2.9100    5.3190    2.8370 h1        1 MOL      0.120248
     87 H35         0.8800    5.5200    1.0360 hc        1 MOL      0.048507
     88 H36         2.0530    4.9830   -0.0770 hc        1 MOL      0.048507
     89 H37         3.3700    6.9220    0.2370 hc        1 MOL      0.105951
     90 H38         2.6360    7.4810    1.6840 hc        1 MOL      0.105951
     91 H39         2.0730    7.0710   -1.9120 hn        1 MOL      0.373061
     92 H40         0.4070    7.7490   -1.8140 hn        1 MOL      0.373061
     93 N9          0.9060    3.4250    2.9800 n         1 MOL     -0.474483
     94 C30        -0.0670    2.2710    3.0610 c3        1 MOL      0.015330
     95 C31        -1.4250    2.7370    2.4750 c         1 MOL      0.428849
     96 O16        -2.0010    3.6470    3.0490 o         1 MOL     -0.544831
     97 C32        -0.1830    1.6600    4.4410 c3        1 MOL      0.274914
     98 C33        -0.6990    0.2370    4.3060 c3        1 MOL     -0.296784
     99 C34         1.0780    1.5310    5.2570 c3        1 MOL     -0.296784
    100 H41         0.7350    4.3000    3.4590 hn        1 MOL      0.285837
    101 H42         0.3260    1.4780    2.4320 h1        1 MOL      0.179149
    102 H43        -0.9260    2.1790    5.0550 hc        1 MOL     -0.038254
    103 H44        -0.0400   -0.3360    3.6520 hc        1 MOL      0.060276
    104 H45        -0.9100   -0.2790    5.2500 hc        1 MOL      0.060276
    105 H46        -1.6830    0.2330    3.8370 hc        1 MOL      0.060276
    106 H47         1.5410    2.4990    5.4450 hc        1 MOL      0.060276
    107 H48         0.9000    0.9650    6.1720 hc        1 MOL      0.060276
    108 H49         1.7950    1.0640    4.5900 hc        1 MOL      0.060276
    109 N10        -1.8680    2.0040    1.4130 n         1 MOL     -0.142335
    110 C35        -3.1530    2.0710    0.6820 c3        1 MOL     -0.037172
    111 C36        -4.2860    1.3290    1.3780 c         1 MOL      0.379403
    112 O17        -4.0940    0.2830    1.9880 o         1 MOL     -0.332067
    113 C37        -2.8210    1.5600   -0.6650 c3        1 MOL     -0.383802
    114 C38        -4.0500    1.3180   -1.5490 c         1 MOL      0.629612
    115 N11        -4.4110    2.3520   -2.1820 n         1 MOL     -0.680939
    116 O18        -4.6290    0.2340   -1.7280 o         1 MOL     -0.425576
    117 H50        -1.2230    1.2610    1.1860 hn        1 MOL      0.076387
    118 H51        -3.4270    3.1270    0.6830 h1        1 MOL      0.085717
    119 H52        -2.2480    0.6360   -0.7390 hc        1 MOL      0.159629
    120 H53        -2.3070    2.3620   -1.2140 hc        1 MOL      0.159629
    121 H54        -4.0810    3.2940   -1.9950 hn        1 MOL      0.346610
    122 H55        -5.2660    2.3090   -2.7230 hn        1 MOL      0.346610
    123 N12        -5.4730    1.8860    1.1680 n         1 MOL     -0.291898
    124 C39        -6.7430    1.3000    1.6580 c3        1 MOL      0.055449
    125 C40        -6.9970   -0.1440    1.2280 c         1 MOL      0.559675
    126 O19        -7.4200   -0.9220    2.0590 o         1 MOL     -0.568373
    127 C41        -7.9300    2.2460    1.4630 c3        1 MOL     -0.055548
    128 C42        -8.4560    2.3710    0.0390 ca        1 MOL      0.030563
    129 C43        -9.4380    1.4490   -0.2960 ca        1 MOL     -0.151106
    130 C44        -7.9930    3.3520   -0.9030 ca        1 MOL     -0.151106
    131 C45       -10.1350    1.5820   -1.5500 ca        1 MOL     -0.309438
    132 C46        -8.6250    3.4730   -2.1630 ca        1 MOL     -0.309438
    133 C47        -9.7270    2.5710   -2.5070 ca        1 MOL      0.322335
    134 O20       -10.2720    2.5960   -3.7560 oh        1 MOL     -0.457193
    135 H56        -5.4740    2.7940    0.7210 hn        1 MOL      0.197114
    136 H57        -6.5640    1.1900    2.7200 h1        1 MOL      0.044728
    137 H58        -7.7750    3.2170    1.9400 hc        1 MOL      0.032067
    138 H59        -8.6790    1.7930    2.1080 hc        1 MOL      0.032067
    139 H60        -9.6270    0.6370    0.3860 ha        1 MOL      0.128163
    140 H61        -7.2230    4.0320   -0.6060 ha        1 MOL      0.128163
    141 H62       -10.7840    0.8240   -1.9620 ha        1 MOL      0.170245
    142 H63        -8.2970    4.2160   -2.8780 ha        1 MOL      0.170245
    143 H64       -10.9050    1.8830   -3.8340 ho        1 MOL      0.367998
    144 N13        -6.8180   -0.5500   -0.0960 n         1 MOL     -0.195974
    145 C48        -6.9060   -2.0190   -0.4370 c3        1 MOL     -0.013510
    146 C49        -5.6880   -2.9050    0.1270 c         1 MOL      0.251498
    147 O21        -5.8840   -4.0750    0.5210 o         1 MOL     -0.491823
    148 C50        -6.8860   -2.1460   -1.9330 c3        1 MOL      0.156779
    149 C51        -8.0020   -1.4670   -2.7790 c3        1 MOL     -0.496235
    150 C52        -7.6890   -1.3660   -4.2700 c         1 MOL      0.829343
    151 O22        -7.6370   -2.4390   -4.9480 o         1 MOL     -0.756052
    152 O23        -7.5290   -0.3140   -4.8810 o         1 MOL     -0.756052
    153 H65        -6.2380   -0.0260   -0.7390 hn        1 MOL      0.117926
    154 H66        -7.8210   -2.4410   -0.0150 h1        1 MOL      0.072607
    155 H67        -6.8770   -3.2090   -2.1640 hc        1 MOL      0.008083
    156 H68        -5.9160   -1.8160   -2.3190 hc        1 MOL      0.008083
    157 H69        -8.1130   -0.4860   -2.3120 hc        1 MOL      0.084472
    158 H70        -8.9520   -1.9650   -2.5840 hc        1 MOL      0.084472
    159 N14        -4.5370   -2.2870    0.1800 n         1 MOL      0.089960
    160 C53        -3.3480   -2.9070    0.7120 c3        1 MOL     -0.218610
    161 C54        -3.5710   -3.3110    2.1470 c         1 MOL      0.362658
    162 O24        -3.2400   -4.3810    2.6100 o         1 MOL     -0.517115
    163 C55        -2.1170   -2.0420    0.5240 c3        1 MOL     -0.127837
    164 C56        -0.7870   -2.6130    1.0080 c3        1 MOL     -0.196583
    165 C57         0.3620   -1.7140    0.4960 c         1 MOL      0.654201
    166 O25         0.3510   -0.5540    0.9600 o         1 MOL     -0.653004
    167 O26         1.3160   -2.0200   -0.2940 o         1 MOL     -0.653004
    168 H71        -4.5420   -1.3320   -0.1330 hn        1 MOL     -0.085073
    169 H72        -3.2200   -3.8680    0.2200 h1        1 MOL      0.150750
    170 H73        -2.2170   -1.0500    0.9750 hc        1 MOL      0.118787
    171 H74        -1.8770   -1.8050   -0.5100 hc        1 MOL      0.118787
    172 H75        -0.6430   -3.5990    0.5610 hc        1 MOL      0.093799
    173 H76        -0.7520   -2.8390    2.0760 hc        1 MOL      0.093799
    174 N15        -4.3190   -2.5010    2.9390 n         1 MOL      0.038719
    175 C58        -4.7180   -2.8740    4.3180 c3        1 MOL     -0.225960
    176 H77        -5.7200   -3.3020    4.3020 h1        1 MOL      0.078681
    177 H78        -4.0160   -3.6070    4.7150 h1        1 MOL      0.078681
    178 H79        -4.7130   -1.9860    4.9510 h1        1 MOL      0.078681
    179 H80        -4.4360   -1.5500    2.6380 hn        1 MOL      0.058311
    180 Ca1         2.5870    0.2060    0.1210 Ca        1 MOL      1.688940
    181 O27         2.7510   -0.4020    2.6410 oh        1 MOL     -0.866169
    182 H81         3.5270   -0.3910    3.2110 ho        1 MOL      0.411788
    183 H82         2.0770   -0.8290    3.1630 ho        1 MOL      0.411788
    184 O28         5.0450    0.6540    0.9030 oh        1 MOL     -0.866169
    185 H83         5.5270    1.0530    1.6250 ho        1 MOL      0.411788
    186 H84         5.4510   -0.2000    0.7870 ho        1 MOL      0.411788
    187 O29         0.3190    1.4580   -1.0750 oh        1 MOL     -0.866169
    188 H85         0.0590    0.8870   -1.7980 ho        1 MOL      0.411788
    189 H86         0.7100    2.2190   -1.4950 ho        1 MOL      0.411788
@<TRIPOS>BOND
     1    1    2 1   
     2    1    4 1   
     3    1    5 1   
     4    1    6 1   
     5    2    3 2   
     6    2    7 1   
     7    7    8 1   
     8    7   15 1   
     9    8    9 1   
    10    8   11 1   
    11    8   16 1   
    12    9   10 2   
    13    9   19 1   
    14   11   12 1   
    15   11   17 1   
    16   11   18 1   
    17   12   13 1   
    18   12   14 1   
    19   19   20 1   
    20   19   27 1   
    21   20   21 1   
    22   20   23 1   
    23   20   28 1   
    24   21   22 2   
    25   21   38 1   
    26   23   24 1   
    27   23   25 1   
    28   23   29 1   
    29   24   26 1   
    30   24   30 1   
    31   24   31 1   
    32   25   32 1   
    33   25   33 1   
    34   25   34 1   
    35   26   35 1   
    36   26   36 1   
    37   26   37 1   
    38   38   39 1   
    39   38   46 1   
    40   39   40 1   
    41   39   42 1   
    42   39   47 1   
    43   40   41 2   
    44   40   50 1   
    45   42   43 1   
    46   42   48 1   
    47   42   49 1   
    48   43   44 1   
    49   43   45 1   
    50   50   51 1   
    51   50   54 1   
    52   51   52 1   
    53   51   55 1   
    54   51   56 1   
    55   52   53 2   
    56   52   57 1   
    57   57   58 1   
    58   57   65 1   
    59   58   59 1   
    60   58   61 1   
    61   58   66 1   
    62   59   60 2   
    63   59   69 1   
    64   61   62 1   
    65   61   67 1   
    66   61   68 1   
    67   62   63 1   
    68   62   64 1   
    69   69   70 1   
    70   69   73 1   
    71   70   71 1   
    72   70   74 1   
    73   70   75 1   
    74   71   72 2   
    75   71   76 1   
    76   76   77 1   
    77   76   85 1   
    78   77   78 1   
    79   77   80 1   
    80   77   86 1   
    81   78   79 2   
    82   78   93 1   
    83   80   81 1   
    84   80   87 1   
    85   80   88 1   
    86   81   82 1   
    87   81   89 1   
    88   81   90 1   
    89   82   83 1   
    90   82   84 2   
    91   83   91 1   
    92   83   92 1   
    93   93   94 1   
    94   93  100 1   
    95   94   95 1   
    96   94   97 1   
    97   94  101 1   
    98   95   96 2   
    99   95  109 1   
   100   97   98 1   
   101   97   99 1   
   102   97  102 1   
   103   98  103 1   
   104   98  104 1   
   105   98  105 1   
   106   99  106 1   
   107   99  107 1   
   108   99  108 1   
   109  109  110 1   
   110  109  117 1   
   111  110  111 1   
   112  110  113 1   
   113  110  118 1   
   114  111  112 2   
   115  111  123 1   
   116  113  114 1   
   117  113  119 1   
   118  113  120 1   
   119  114  115 1   
   120  114  116 2   
   121  115  121 1   
   122  115  122 1   
   123  123  124 1   
   124  123  135 1   
   125  124  125 1   
   126  124  127 1   
   127  124  136 1   
   128  125  126 2   
   129  125  144 1   
   130  127  128 1   
   131  127  137 1   
   132  127  138 1   
   133  128  129 ar  
   134  128  130 ar  
   135  129  131 ar  
   136  129  139 1   
   137  130  132 ar  
   138  130  140 1   
   139  131  133 ar  
   140  131  141 1   
   141  132  133 ar  
   142  132  142 1   
   143  133  134 1   
   144  134  143 1   
   145  144  145 1   
   146  144  153 1   
   147  145  146 1   
   148  145  148 1   
   149  145  154 1   
   150  146  147 2   
   151  146  159 1   
   152  148  149 1   
   153  148  155 1   
   154  148  156 1   
   155  149  150 1   
   156  149  157 1   
   157  149  158 1   
   158  150  151 1   
   159  150  152 1   
   160  159  160 1   
   161  159  168 1   
   162  160  161 1   
   163  160  163 1   
   164  160  169 1   
   165  161  162 2   
   166  161  174 1   
   167  163  164 1   
   168  163  170 1   
   169  163  171 1   
   170  164  165 1   
   171  164  172 1   
   172  164  173 1   
   173  165  166 1   
   174  165  167 1   
   175  174  175 1   
   176  174  179 1   
   177  175  176 1   
   178  175  177 1   
   179  175  178 1   
   180  181  182 1   
   181  181  183 1   
   182  184  185 1   
   183  184  186 1   
   184  187  188 1   
   185  187  189 1   
@<TRIPOS>SUBSTRUCTURE
     1 MOL         1 TEMP              0 ****  ****    0 ROOT
