@<TRIPOS>MOLECULE
MOL
  189   185     1     0     0
SMALL
resp


@<TRIPOS>ATOM
      1 C1         -0.8610    0.6900    6.4590 c3        1 MOL     -0.118722
      2 C2         -1.0480    0.7180    4.9430 c         1 MOL      0.803251
      3 O1         -0.1150    1.0050    4.1950 o         1 MOL     -0.654729
      4 H1          0.1540    1.0050    6.7040 hc        1 MOL      0.022931
      5 H2         -1.5740    1.3690    6.9260 hc        1 MOL      0.022931
      6 H3         -1.0260   -0.3220    6.8280 hc        1 MOL      0.022931
      7 N1         -2.2170    0.2750    4.4480 n         1 MOL     -0.650502
      8 C3         -2.6250    0.5360    3.0660 c3        1 MOL      0.109398
      9 C4         -3.1210    1.9940    3.0650 c         1 MOL      0.495165
     10 O2         -4.0990    2.3050    3.7670 o         1 MOL     -0.546828
     11 C5         -3.8110   -0.3530    2.7330 c3        1 MOL     -0.201562
     12 C6         -4.2850   -0.1930    1.2710 c         1 MOL      0.726125
     13 O3         -5.3520   -0.6360    0.9970 o         1 MOL     -0.629617
     14 O4         -3.5410    0.4100    0.4520 o         1 MOL     -0.629617
     15 H4         -2.7800   -0.3460    5.0070 hn        1 MOL      0.333319
     16 H5         -1.7670    0.4310    2.4070 h1        1 MOL      0.012812
     17 H6         -4.6410   -0.2080    3.4180 hc        1 MOL      0.056289
     18 H7         -3.5130   -1.4000    2.8210 hc        1 MOL      0.056289
     19 N2         -2.5310    2.8780    2.2370 n         1 MOL     -0.176072
     20 C7         -2.8440    4.3100    2.2270 c3        1 MOL     -0.230333
     21 C8         -3.8300    4.7520    1.1730 c         1 MOL      0.577694
     22 O5         -4.4120    5.8250    1.2820 o         1 MOL     -0.549481
     23 C9         -1.5020    5.0750    2.3540 c3        1 MOL      0.071861
     24 C10        -0.4260    5.0320    1.2010 c3        1 MOL     -0.226090
     25 C11        -0.9460    4.9170   -0.2320 c3        1 MOL     -0.088261
     26 C12         0.3100    5.0090   -1.1040 c3        1 MOL      0.130914
     27 N3         -0.0370    4.4560   -2.4350 n4        1 MOL     -0.252770
     28 H8         -1.7510    2.5440    1.6960 hn        1 MOL      0.208635
     29 H9         -3.4370    4.5250    3.1160 h1        1 MOL      0.170443
     30 H10        -0.9700    4.9540    3.3020 hc        1 MOL      0.013621
     31 H11        -1.8040    6.1130    2.4840 hc        1 MOL      0.013621
     32 H12         0.2240    4.1690    1.3460 hc        1 MOL      0.095727
     33 H13         0.2490    5.8810    1.2450 hc        1 MOL      0.095727
     34 H14        -1.5930    5.7540   -0.5090 hc        1 MOL      0.097623
     35 H15        -1.3630    3.9110   -0.2580 hc        1 MOL      0.097623
     36 H16         1.0270    4.4210   -0.5210 hx        1 MOL      0.003417
     37 H17         0.8100    5.9740   -1.2170 hx        1 MOL      0.003417
     38 H18        -0.5280    5.0980   -3.0400 hn        1 MOL      0.257290
     39 H19         0.8170    4.1430   -2.8820 hn        1 MOL      0.257290
     40 H20        -0.5920    3.6120   -2.4420 hn        1 MOL      0.257290
     41 N4         -4.2190    3.7780    0.3420 n         1 MOL     -0.243416
     42 C13        -5.1760    3.8020   -0.7960 c3        1 MOL     -0.052290
     43 C14        -6.6020    3.2780   -0.4420 c         1 MOL      0.581047
     44 O6         -7.6200    3.8110   -0.8610 o         1 MOL     -0.535131
     45 C15        -4.6150    2.9460   -2.0230 c3        1 MOL     -0.084105
     46 C16        -3.2180    3.3590   -2.4520 c         1 MOL      0.721423
     47 O7         -2.3160    2.7100   -1.9490 o         1 MOL     -0.672119
     48 O8         -3.0500    4.2360   -3.2670 o         1 MOL     -0.672119
     49 H21        -3.5210    3.0450    0.4020 hn        1 MOL     -0.061308
     50 H22        -5.4560    4.7940   -1.1550 h1        1 MOL      0.071567
     51 H23        -5.2570    3.1410   -2.8830 hc        1 MOL      0.032910
     52 H24        -4.6930    1.8740   -1.8550 hc        1 MOL      0.032910
     53 N5         -6.6550    2.1250    0.2490 n         1 MOL     -0.376485
     54 C17        -7.8690    1.3140    0.3700 c3        1 MOL     -0.138277
     55 C18        -7.9770    0.2370   -0.7610 c         1 MOL      0.475979
     56 O9         -9.0170   -0.2660   -1.1810 o         1 MOL     -0.559902
     57 H25        -5.7920    1.6760    0.5290 hn        1 MOL      0.296551
     58 H26        -8.7600    1.9380    0.4310 h1        1 MOL      0.119279
     59 H27        -7.7480    0.8860    1.3660 h1        1 MOL      0.119279
     60 N6         -6.8060   -0.1820   -1.3430 n         1 MOL     -0.085811
     61 C19        -6.7080   -1.2710   -2.4010 c3        1 MOL     -0.105073
     62 C20        -6.4450   -2.6610   -1.8670 c         1 MOL      0.433723
     63 O10        -6.4020   -3.6700   -2.5710 o         1 MOL     -0.546908
     64 C21        -5.6280   -0.9740   -3.4830 c3        1 MOL     -0.167490
     65 C22        -4.2040   -0.7190   -2.8610 c         1 MOL      0.684269
     66 O11        -3.4740    0.2710   -3.1280 o         1 MOL     -0.737022
     67 O12        -3.7410   -1.5640   -2.0800 o         1 MOL     -0.737022
     68 H28        -6.0070    0.2250   -0.8830 hn        1 MOL     -0.026888
     69 H29        -7.6740   -1.3430   -2.9010 h1        1 MOL      0.151832
     70 H30        -5.9860   -0.1420   -4.0770 hc        1 MOL      0.075611
     71 H31        -5.5140   -1.7960   -4.1900 hc        1 MOL      0.075611
     72 N7         -6.2680   -2.7680   -0.5510 n         1 MOL     -0.230111
     73 C23        -6.2410   -4.0400    0.1600 c3        1 MOL     -0.090944
     74 C24        -4.7910   -4.6180    0.1470 c         1 MOL      0.534205
     75 O13        -4.7280   -5.7340    0.5460 o         1 MOL     -0.559361
     76 H32        -6.0720   -1.8960   -0.0690 hn        1 MOL      0.218256
     77 H33        -6.8960   -4.7340   -0.3680 h1        1 MOL      0.090894
     78 H34        -6.7020   -3.9090    1.1320 h1        1 MOL      0.090894
     79 N8         -3.7960   -3.9000   -0.4110 n         1 MOL     -0.293277
     80 C25        -2.4960   -4.4150   -0.5670 c3        1 MOL     -0.053686
     81 C26        -1.3870   -3.5020   -0.0350 c         1 MOL      0.693742
     82 O14        -1.5350   -2.3070   -0.1600 o         1 MOL     -0.703054
     83 C27        -2.1980   -4.8100   -2.0150 c3        1 MOL      0.621202
     84 C28        -2.6880   -6.2810   -2.2200 c3        1 MOL     -0.593186
     85 O15        -2.8170   -3.9440   -2.8990 oh        1 MOL     -0.725680
     86 H35        -4.0050   -2.9380   -0.6050 hn        1 MOL      0.201558
     87 H36        -2.3490   -5.2270    0.1540 h1        1 MOL      0.028218
     88 H37        -1.1110   -4.8970   -2.0940 h1        1 MOL     -0.110150
     89 H38        -3.0940   -3.1680   -2.4270 ho        1 MOL      0.527752
     90 H39        -3.7760   -6.3430   -2.3240 hc        1 MOL      0.152209
     91 H40        -2.2890   -6.5330   -3.2030 hc        1 MOL      0.152209
     92 H41        -2.1530   -6.8750   -1.4790 hc        1 MOL      0.152209
     93 N9         -0.2050   -4.0430    0.3970 n         1 MOL     -0.675416
     94 C29         0.9570   -3.2670    0.9600 c3        1 MOL      0.086361
     95 C30         2.1880   -3.3590   -0.0660 c         1 MOL      0.477683
     96 O16         2.5440   -4.4490   -0.5010 o         1 MOL     -0.556579
     97 C31         1.2740   -3.7100    2.4150 c3        1 MOL      0.028247
     98 C32         0.2080   -3.1040    3.3790 c3        1 MOL      0.084977
     99 C33         2.6640   -3.3430    2.9720 c3        1 MOL     -0.357601
    100 C34         0.4340   -3.5030    4.8250 c3        1 MOL     -0.333648
    101 H42        -0.1250   -5.0410    0.4810 hn        1 MOL      0.335234
    102 H43         0.5900   -2.2440    1.0090 h1        1 MOL      0.091177
    103 H44         1.2770   -4.8010    2.4390 hc        1 MOL      0.042814
    104 H45        -0.7940   -3.4970    3.1730 hc        1 MOL      0.020623
    105 H46         0.1880   -2.0130    3.3310 hc        1 MOL      0.020623
    106 H47         3.3990   -3.6170    2.2150 hc        1 MOL      0.075081
    107 H48         2.8900   -2.3150    3.2560 hc        1 MOL      0.075081
    108 H49         2.8330   -3.9800    3.8450 hc        1 MOL      0.075081
    109 H50        -0.4620   -3.3060    5.4130 hc        1 MOL      0.089711
    110 H51         0.8220   -4.5110    4.9310 hc        1 MOL      0.089711
    111 H52         1.1630   -2.8200    5.2620 hc        1 MOL      0.089711
    112 N10         2.7960   -2.2370   -0.4020 n         1 MOL     -0.082330
    113 C35         3.8920   -2.2040   -1.3540 c3        1 MOL      0.002950
    114 C36         5.1520   -2.2800   -0.6370 c         1 MOL      0.352206
    115 O17         5.2240   -2.2350    0.5980 o         1 MOL     -0.363420
    116 C37         3.7680   -0.9810   -2.2660 c3        1 MOL      0.115833
    117 C38         2.5170   -0.9460   -3.1070 c3        1 MOL     -0.427482
    118 O18         3.8840    0.2090   -1.5370 oh        1 MOL     -0.489220
    119 H53         2.3780   -1.3750   -0.0880 hn        1 MOL      0.288218
    120 H54         3.9130   -3.0240   -2.0710 h1        1 MOL      0.074772
    121 H55         4.5320   -1.0340   -3.0380 h1        1 MOL      0.010058
    122 H56         3.2300    0.7640   -1.9770 ho        1 MOL      0.357951
    123 H57         1.6820   -1.1950   -2.4540 hc        1 MOL      0.109821
    124 H58         2.3090   -0.0020   -3.6100 hc        1 MOL      0.109821
    125 H59         2.5840   -1.7530   -3.8310 hc        1 MOL      0.109821
    126 N11         6.2750   -2.2180   -1.3770 n         1 MOL     -0.323717
    127 C39         7.6120   -1.9860   -0.9050 c3        1 MOL     -0.030463
    128 C40         7.7050   -0.7490    0.0510 c         1 MOL      0.239261
    129 O19         8.3650   -0.7660    1.0940 o         1 MOL     -0.447383
    130 C41         8.7420   -1.8170   -1.9860 c3        1 MOL      0.218184
    131 C42         9.1330   -3.1120   -2.5880 c3        1 MOL     -0.386171
    132 O20         8.1900   -0.9360   -2.9360 oh        1 MOL     -0.593120
    133 H60         6.1370   -2.2610   -2.3840 hn        1 MOL      0.279249
    134 H61         7.9110   -2.8480   -0.3110 h1        1 MOL      0.134898
    135 H62         9.6510   -1.4340   -1.5290 h1        1 MOL      0.069534
    136 H63         8.9300   -0.6730   -3.4900 ho        1 MOL      0.387711
    137 H64         9.4240   -3.7510   -1.7630 hc        1 MOL      0.117427
    138 H65         8.2310   -3.5160   -3.0490 hc        1 MOL      0.117427
    139 H66         9.9140   -2.9710   -3.3410 hc        1 MOL      0.117427
    140 N12         7.0750    0.3770   -0.3210 n         1 MOL     -0.294854
    141 C43         7.0720    1.6210    0.4580 c3        1 MOL      0.165911
    142 C44         6.0690    1.6610    1.6060 c         1 MOL      0.352021
    143 O21         6.4980    2.0840    2.6610 o         1 MOL     -0.483617
    144 C45         6.7370    2.7030   -0.5440 c3        1 MOL     -0.219220
    145 C46         7.5790    2.7910   -1.7900 c3        1 MOL      0.205827
    146 C47         7.2940    3.9520   -2.7730 c3        1 MOL     -0.179783
    147 C48         8.1550    3.8320   -4.0860 c3        1 MOL      0.136914
    148 N13         9.5720    4.2100   -3.8880 n4        1 MOL     -0.390414
    149 H67         6.5140    0.3340   -1.1570 hn        1 MOL      0.252372
    150 H68         7.9970    1.8040    1.0070 h1        1 MOL      0.086678
    151 H69         6.9120    3.6200    0.0180 hc        1 MOL      0.035361
    152 H70         5.6990    2.5920   -0.8480 hc        1 MOL      0.035361
    153 H71         7.5220    1.8670   -2.3800 hc        1 MOL     -0.052538
    154 H72         8.6220    2.8460   -1.4770 hc        1 MOL     -0.052538
    155 H73         7.5050    4.8780   -2.2330 hc        1 MOL      0.083762
    156 H74         6.2740    3.9440   -3.1530 hc        1 MOL      0.083762
    157 H75         7.6450    4.4350   -4.8400 hx        1 MOL      0.058734
    158 H76         8.2180    2.7990   -4.4230 hx        1 MOL      0.058734
    159 H77        10.0290    4.1880   -4.7920 hn        1 MOL      0.339114
    160 H78         9.6680    5.0550   -3.3500 hn        1 MOL      0.339114
    161 H79        10.0170    3.4940   -3.3210 hn        1 MOL      0.339114
    162 N14         4.8520    1.1050    1.5030 n         1 MOL     -0.221966
    163 C49         3.9250    0.8180    2.6210 c3        1 MOL     -0.156957
    164 C50         4.4670   -0.1420    3.7070 c         1 MOL      0.481267
    165 O22         4.2880    0.1530    4.8940 o         1 MOL     -0.527797
    166 C51         2.6320    0.3650    2.0320 c3        1 MOL      0.254302
    167 C52         1.8990    1.4780    1.2250 c3        1 MOL     -0.205713
    168 C53         0.6580    0.9390    0.4910 c         1 MOL      0.902839
    169 O23         0.7700   -0.0170   -0.3010 o         1 MOL     -0.823072
    170 O24        -0.4200    1.4990    0.5060 o         1 MOL     -0.823072
    171 H80         4.6850    0.7590    0.5750 hn        1 MOL      0.217187
    172 H81         3.6510    1.7240    3.1560 h1        1 MOL      0.139194
    173 H82         1.9240    0.0820    2.8200 hc        1 MOL     -0.027323
    174 H83         2.7950   -0.5270    1.4240 hc        1 MOL     -0.027323
    175 H84         2.5540    1.7740    0.3970 hc        1 MOL     -0.008269
    176 H85         1.7360    2.3710    1.8330 hc        1 MOL     -0.008269
    177 N15         5.3050   -1.1460    3.3440 n         1 MOL     -0.066282
    178 C54         5.9440   -2.0780    4.2590 c3        1 MOL     -0.421890
    179 H86         6.9590   -1.7420    4.4680 h1        1 MOL      0.142575
    180 H87         5.3770   -2.1220    5.1890 h1        1 MOL      0.142575
    181 H88         5.9760   -3.0690    3.8050 h1        1 MOL      0.142575
    182 H89         5.4540   -1.2790    2.3570 hn        1 MOL      0.178362
    183 Ca1        -1.7210    0.1840   -1.2240 Ca        1 MOL      1.777977
    184 O25         0.2790    1.7660   -3.2290 oh        1 MOL     -0.766199
    185 H90         0.3470    1.0050   -3.8160 ho        1 MOL      0.377488
    186 H91         1.1730    2.0980   -3.1770 ho        1 MOL      0.377488
    187 O26        -0.8380   -1.5640   -3.1420 oh        1 MOL     -0.766199
    188 H92        -1.2820   -2.3720   -3.3990 ho        1 MOL      0.377488
    189 H93        -0.4390   -1.2380   -3.9550 ho        1 MOL      0.377488
@<TRIPOS>BOND
     1    1    2 1   
     2    1    4 1   
     3    1    5 1   
     4    1    6 1   
     5    2    3 2   
     6    2    7 1   
     7    7    8 1   
     8    7   15 1   
     9    8    9 1   
    10    8   11 1   
    11    8   16 1   
    12    9   10 2   
    13    9   19 1   
    14   11   12 1   
    15   11   17 1   
    16   11   18 1   
    17   12   13 1   
    18   12   14 1   
    19   19   20 1   
    20   19   28 1   
    21   20   21 1   
    22   20   23 1   
    23   20   29 1   
    24   21   22 2   
    25   21   41 1   
    26   23   24 1   
    27   23   30 1   
    28   23   31 1   
    29   24   25 1   
    30   24   32 1   
    31   24   33 1   
    32   25   26 1   
    33   25   34 1   
    34   25   35 1   
    35   26   27 1   
    36   26   36 1   
    37   26   37 1   
    38   27   38 1   
    39   27   39 1   
    40   27   40 1   
    41   41   42 1   
    42   41   49 1   
    43   42   43 1   
    44   42   45 1   
    45   42   50 1   
    46   43   44 2   
    47   43   53 1   
    48   45   46 1   
    49   45   51 1   
    50   45   52 1   
    51   46   47 1   
    52   46   48 1   
    53   53   54 1   
    54   53   57 1   
    55   54   55 1   
    56   54   58 1   
    57   54   59 1   
    58   55   56 2   
    59   55   60 1   
    60   60   61 1   
    61   60   68 1   
    62   61   62 1   
    63   61   64 1   
    64   61   69 1   
    65   62   63 2   
    66   62   72 1   
    67   64   65 1   
    68   64   70 1   
    69   64   71 1   
    70   65   66 1   
    71   65   67 1   
    72   72   73 1   
    73   72   76 1   
    74   73   74 1   
    75   73   77 1   
    76   73   78 1   
    77   74   75 2   
    78   74   79 1   
    79   79   80 1   
    80   79   86 1   
    81   80   81 1   
    82   80   83 1   
    83   80   87 1   
    84   81   82 2   
    85   81   93 1   
    86   83   84 1   
    87   83   85 1   
    88   83   88 1   
    89   84   90 1   
    90   84   91 1   
    91   84   92 1   
    92   85   89 1   
    93   93   94 1   
    94   93  101 1   
    95   94   95 1   
    96   94   97 1   
    97   94  102 1   
    98   95   96 2   
    99   95  112 1   
   100   97   98 1   
   101   97   99 1   
   102   97  103 1   
   103   98  100 1   
   104   98  104 1   
   105   98  105 1   
   106   99  106 1   
   107   99  107 1   
   108   99  108 1   
   109  100  109 1   
   110  100  110 1   
   111  100  111 1   
   112  112  113 1   
   113  112  119 1   
   114  113  114 1   
   115  113  116 1   
   116  113  120 1   
   117  114  115 2   
   118  114  126 1   
   119  116  117 1   
   120  116  118 1   
   121  116  121 1   
   122  117  123 1   
   123  117  124 1   
   124  117  125 1   
   125  118  122 1   
   126  126  127 1   
   127  126  133 1   
   128  127  128 1   
   129  127  130 1   
   130  127  134 1   
   131  128  129 2   
   132  128  140 1   
   133  130  131 1   
   134  130  132 1   
   135  130  135 1   
   136  131  137 1   
   137  131  138 1   
   138  131  139 1   
   139  132  136 1   
   140  140  141 1   
   141  140  149 1   
   142  141  142 1   
   143  141  144 1   
   144  141  150 1   
   145  142  143 2   
   146  142  162 1   
   147  144  145 1   
   148  144  151 1   
   149  144  152 1   
   150  145  146 1   
   151  145  153 1   
   152  145  154 1   
   153  146  147 1   
   154  146  155 1   
   155  146  156 1   
   156  147  148 1   
   157  147  157 1   
   158  147  158 1   
   159  148  159 1   
   160  148  160 1   
   161  148  161 1   
   162  162  163 1   
   163  162  171 1   
   164  163  164 1   
   165  163  166 1   
   166  163  172 1   
   167  164  165 2   
   168  164  177 1   
   169  166  167 1   
   170  166  173 1   
   171  166  174 1   
   172  167  168 1   
   173  167  175 1   
   174  167  176 1   
   175  168  169 1   
   176  168  170 1   
   177  177  178 1   
   178  177  182 1   
   179  178  179 1   
   180  178  180 1   
   181  178  181 1   
   182  184  185 1   
   183  184  186 1   
   184  187  188 1   
   185  187  189 1   
@<TRIPOS>SUBSTRUCTURE
     1 MOL         1 TEMP              0 ****  ****    0 ROOT
