@<TRIPOS>MOLECULE
MOL
  189   185     1     0     0
SMALL
resp


@<TRIPOS>ATOM
      1 C1          0.4460    3.7730   -4.4900 c3        1 MOL     -0.298143
      2 C2          0.7300    2.9040   -3.2930 c         1 MOL      0.635977
      3 O1         -0.0160    3.1560   -2.3410 o         1 MOL     -0.585471
      4 H1          0.4780    3.1660   -5.3950 hc        1 MOL      0.065897
      5 H2         -0.5420    4.2220   -4.3880 hc        1 MOL      0.065897
      6 H3          1.1980    4.5610   -4.5540 hc        1 MOL      0.065897
      7 N1          1.8020    2.1430   -3.2300 n         1 MOL     -0.377015
      8 C3          2.4070    1.6350   -2.0350 c3        1 MOL      0.207887
      9 C4          3.3260    2.6430   -1.3400 c         1 MOL      0.178859
     10 O2          4.4740    2.9080   -1.7100 o         1 MOL     -0.444973
     11 C5          3.2530    0.4120   -2.4920 c3        1 MOL     -0.404249
     12 C6          4.0600   -0.2530   -1.4160 c         1 MOL      0.814244
     13 O3          3.7470   -0.0760   -0.1750 o         1 MOL     -0.632306
     14 O4          5.0200   -0.9090   -1.7970 o         1 MOL     -0.632306
     15 H4          2.3720    1.9910   -4.0540 hn        1 MOL      0.276635
     16 H5          1.6440    1.2860   -1.3430 h1        1 MOL     -0.039322
     17 H6          3.8800    0.7820   -3.3020 hc        1 MOL      0.092282
     18 H7          2.5800   -0.3650   -2.8590 hc        1 MOL      0.092282
     19 N2          2.6520    3.4500   -0.5090 n         1 MOL     -0.012795
     20 C7          3.1460    4.7990   -0.0750 c3        1 MOL      0.000757
     21 C8          4.0860    4.9010    1.1310 c         1 MOL      0.441753
     22 O5          4.8870    5.8860    1.2780 o         1 MOL     -0.537878
     23 C9          1.9410    5.7630    0.1360 c3        1 MOL     -0.384550
     24 C10         1.3930    6.3710   -1.1970 c3        1 MOL      0.478960
     25 C11         0.2440    7.3480   -0.8190 c3        1 MOL     -0.029056
     26 C12        -0.5150    7.7310   -2.0670 c3        1 MOL     -0.048615
     27 N3          0.3320    8.5920   -2.9810 n4        1 MOL     -0.331436
     28 H8          1.7700    3.0310   -0.2420 hn        1 MOL      0.214187
     29 H9          3.7180    5.2170   -0.8970 h1        1 MOL      0.076053
     30 H10         2.2530    6.6510    0.6910 hc        1 MOL      0.103771
     31 H11         1.1140    5.2810    0.6520 hc        1 MOL      0.103771
     32 H12         1.0610    5.5380   -1.8170 hc        1 MOL     -0.122182
     33 H13         2.1540    6.8900   -1.7660 hc        1 MOL     -0.122182
     34 H14         0.7590    8.2250   -0.4350 hc        1 MOL      0.024778
     35 H15        -0.4120    6.9670   -0.0370 hc        1 MOL      0.024778
     36 H16        -1.3920    8.3360   -1.8250 hx        1 MOL      0.114082
     37 H17        -0.8440    6.9200   -2.7150 hx        1 MOL      0.114082
     38 H18         0.7010    9.4390   -2.5740 hn        1 MOL      0.309911
     39 H19         1.1540    8.0960   -3.2770 hn        1 MOL      0.309911
     40 H20        -0.1460    8.8120   -3.8420 hn        1 MOL      0.309911
     41 N4          4.0110    3.8040    1.9510 n         1 MOL     -0.373717
     42 C13         4.9020    3.4030    3.0080 c3        1 MOL      0.246519
     43 C14         6.0700    2.6030    2.3610 c         1 MOL      0.335251
     44 O6          7.1520    2.4530    2.9570 o         1 MOL     -0.544520
     45 C15         4.1520    2.7220    4.1560 c3        1 MOL     -0.284872
     46 C16         3.3310    1.4620    3.7910 c         1 MOL      0.796771
     47 O7          3.3800    0.9830    2.6460 o         1 MOL     -0.688277
     48 O8          2.6930    0.9650    4.7030 o         1 MOL     -0.688277
     49 H21         3.3290    3.1070    1.7150 hn        1 MOL      0.230153
     50 H22         5.4020    4.2480    3.4770 h1        1 MOL      0.033695
     51 H23         3.4750    3.4790    4.5580 hc        1 MOL      0.063552
     52 H24         4.9080    2.5050    4.9030 hc        1 MOL      0.063552
     53 N5          5.8660    1.9490    1.2350 n         1 MOL      0.136976
     54 C17         6.9650    1.3800    0.4670 c3        1 MOL     -0.157874
     55 C18         7.3480   -0.0530    0.8700 c         1 MOL      0.522445
     56 O9          8.5510   -0.3850    0.8490 o         1 MOL     -0.565471
     57 H25         4.9250    1.8130    0.8950 hn        1 MOL     -0.217579
     58 H26         7.8720    1.9730    0.3880 h1        1 MOL      0.095576
     59 H27         6.5850    1.3040   -0.5550 h1        1 MOL      0.095576
     60 N6          6.3800   -0.8600    1.3350 n         1 MOL     -0.215107
     61 C19         6.6090   -2.2420    1.8690 c3        1 MOL     -0.143757
     62 C20         6.7250   -3.3450    0.7830 c         1 MOL      0.414081
     63 O10         7.1120   -4.5100    1.0280 o         1 MOL     -0.512722
     64 C21         5.5260   -2.5460    2.9530 c3        1 MOL     -0.162022
     65 C22         3.9840   -2.5280    2.5720 c         1 MOL      0.715481
     66 O11         3.1550   -1.9460    3.3040 o         1 MOL     -0.722325
     67 O12         3.5340   -2.9370    1.4880 o         1 MOL     -0.722325
     68 H28         5.4620   -0.4510    1.2750 hn        1 MOL      0.193066
     69 H29         7.5610   -2.2120    2.4170 h1        1 MOL      0.145051
     70 H30         5.6050   -1.7590    3.7030 hc        1 MOL      0.078735
     71 H31         5.7240   -3.4370    3.5370 hc        1 MOL      0.078735
     72 N7          6.3610   -2.9800   -0.4730 n         1 MOL     -0.138825
     73 C23         6.3720   -3.7750   -1.6400 c3        1 MOL     -0.099746
     74 C24         4.9690   -4.4500   -1.9830 c         1 MOL      0.557877
     75 O13         4.8570   -5.3700   -2.8030 o         1 MOL     -0.601478
     76 H32         6.1290   -2.0220   -0.6940 hn        1 MOL      0.200056
     77 H33         7.1920   -4.4950   -1.7030 h1        1 MOL      0.065522
     78 H34         6.4580   -3.0990   -2.4950 h1        1 MOL      0.065522
     79 N8          3.9550   -3.8870   -1.4020 n         1 MOL     -0.191049
     80 C25         2.5740   -4.2950   -1.5960 c3        1 MOL     -0.080512
     81 C26         1.5470   -3.1840   -1.4700 c         1 MOL      0.584167
     82 O14         1.8130   -2.0990   -0.8780 o         1 MOL     -0.514355
     83 C27         2.2230   -5.4340   -0.6010 c3        1 MOL      0.443733
     84 C28         2.3110   -6.8200   -1.2720 c3        1 MOL     -0.427517
     85 O15         3.0720   -5.4690    0.5590 oh        1 MOL     -0.657454
     86 H35         4.0920   -3.0540   -0.8350 hn        1 MOL      0.106845
     87 H36         2.4880   -4.7230   -2.5980 h1        1 MOL      0.062224
     88 H37         1.2310   -5.3120   -0.1770 h1        1 MOL     -0.030753
     89 H38         3.1670   -4.5870    0.9140 ho        1 MOL      0.444111
     90 H39         3.2800   -6.9230   -1.7650 hc        1 MOL      0.105796
     91 H40         2.2990   -7.6580   -0.5690 hc        1 MOL      0.105796
     92 H41         1.5970   -6.9830   -2.0810 hc        1 MOL      0.105796
     93 N9          0.4000   -3.4300   -2.0730 n         1 MOL     -0.591480
     94 C29        -0.8010   -2.4430   -2.0860 c3        1 MOL      0.122130
     95 C30        -2.0280   -2.9910   -1.2970 c         1 MOL      0.408436
     96 O16        -2.4810   -4.0730   -1.6200 o         1 MOL     -0.541036
     97 C31        -1.1040   -2.0960   -3.5180 c3        1 MOL      0.024707
     98 C32         0.0290   -1.2150   -4.0930 c3        1 MOL      0.053753
     99 C33        -2.4860   -1.4080   -3.8230 c3        1 MOL     -0.196710
    100 C34        -0.2550   -0.7230   -5.4920 c3        1 MOL     -0.232784
    101 H42         0.1880   -4.2760   -2.5740 hn        1 MOL      0.336124
    102 H43        -0.5550   -1.5340   -1.5440 h1        1 MOL      0.051192
    103 H44        -1.0190   -3.0410   -4.0440 hc        1 MOL      0.025961
    104 H45         0.9460   -1.8000   -4.0460 hc        1 MOL      0.010536
    105 H46         0.2150   -0.3420   -3.4690 hc        1 MOL      0.010536
    106 H47        -3.3180   -1.8880   -3.2990 hc        1 MOL      0.045447
    107 H48        -2.3470   -0.3670   -3.5210 hc        1 MOL      0.045447
    108 H49        -2.8270   -1.4090   -4.8520 hc        1 MOL      0.045447
    109 H50        -1.0450    0.0230   -5.5140 hc        1 MOL      0.054210
    110 H51         0.6150   -0.2280   -5.9340 hc        1 MOL      0.054210
    111 H52        -0.5250   -1.5580   -6.1320 hc        1 MOL      0.054210
    112 N10        -2.3690   -2.4460   -0.1520 n         1 MOL     -0.112651
    113 C35        -3.6090   -2.6340    0.5400 c3        1 MOL     -0.008932
    114 C36        -4.9260   -2.2880   -0.1540 c         1 MOL      0.345937
    115 O17        -4.8870   -1.5450   -1.1310 o         1 MOL     -0.383640
    116 C37        -3.5910   -2.0300    1.9380 c3        1 MOL      0.228429
    117 C38        -2.4280   -2.5720    2.7950 c3        1 MOL     -0.508435
    118 O18        -3.4920   -0.6920    1.7760 oh        1 MOL     -0.435023
    119 H53        -1.7790   -1.7720    0.3120 hn        1 MOL      0.185531
    120 H54        -3.6320   -3.6970    0.7600 h1        1 MOL      0.054817
    121 H55        -4.5670   -2.2620    2.3490 h1        1 MOL     -0.045629
    122 H56        -3.1190   -0.3720    2.6150 ho        1 MOL      0.382050
    123 H57        -2.5680   -3.6450    2.8920 hc        1 MOL      0.151918
    124 H58        -1.4610   -2.4050    2.3230 hc        1 MOL      0.151918
    125 H59        -2.3220   -2.0280    3.7400 hc        1 MOL      0.151918
    126 N11        -6.0620   -2.8130    0.3570 n         1 MOL     -0.246601
    127 C39        -7.4230   -2.4800   -0.0670 c3        1 MOL     -0.066920
    128 C40        -7.6790   -1.0020   -0.2050 c         1 MOL      0.381026
    129 O19        -8.3290   -0.5840   -1.1220 o         1 MOL     -0.455332
    130 C41        -8.4570   -3.1060    0.8810 c3        1 MOL      0.431613
    131 C42        -9.7880   -3.2250    0.2710 c3        1 MOL     -0.242986
    132 O20        -8.0160   -4.3490    1.3660 oh        1 MOL     -0.639441
    133 H60        -5.9820   -3.5840    1.0030 hn        1 MOL      0.234678
    134 H61        -7.5870   -2.9130   -1.0570 h1        1 MOL      0.123946
    135 H62        -8.6620   -2.3790    1.6710 h1        1 MOL     -0.104335
    136 H63        -8.6640   -4.7400    1.9480 ho        1 MOL      0.416037
    137 H64       -10.6150   -3.4760    0.9430 hc        1 MOL      0.063343
    138 H65        -9.9980   -2.3200   -0.3020 hc        1 MOL      0.063343
    139 H66        -9.7870   -3.9000   -0.5810 hc        1 MOL      0.063343
    140 N12        -7.1130   -0.2120    0.7010 n         1 MOL     -0.296564
    141 C43        -6.9740    1.2630    0.7110 c3        1 MOL     -0.071299
    142 C44        -6.0980    1.8880   -0.3150 c         1 MOL      0.337026
    143 O21        -6.4880    2.7710   -1.1200 o         1 MOL     -0.505569
    144 C45        -6.8010    1.7140    2.1300 c3        1 MOL     -0.006324
    145 C46        -7.9250    1.2430    3.0740 c3        1 MOL      0.039467
    146 C47        -7.8480    1.9520    4.4440 c3        1 MOL     -0.137553
    147 C48        -9.0070    1.6050    5.3070 c3        1 MOL      0.033840
    148 N13       -10.3770    1.9580    4.8100 n4        1 MOL     -0.306532
    149 H67        -6.5280   -0.6780    1.3820 hn        1 MOL      0.182548
    150 H68        -8.0040    1.5440    0.4420 h1        1 MOL      0.108509
    151 H69        -6.6450    2.7790    2.2520 hc        1 MOL      0.014157
    152 H70        -5.8310    1.3820    2.4970 hc        1 MOL      0.014157
    153 H71        -7.7930    0.1890    3.3190 hc        1 MOL      0.020173
    154 H72        -8.8860    1.3940    2.5800 hc        1 MOL      0.020173
    155 H73        -7.7660    3.0360    4.3060 hc        1 MOL      0.091451
    156 H74        -6.9970    1.4480    4.9040 hc        1 MOL      0.091451
    157 H75        -8.8400    2.0290    6.3010 hx        1 MOL      0.081725
    158 H76        -8.9520    0.5160    5.3520 hx        1 MOL      0.081725
    159 H77       -10.5430    1.6100    3.8810 hn        1 MOL      0.290423
    160 H78       -11.1010    1.5540    5.3830 hn        1 MOL      0.290423
    161 H79       -10.5220    2.9540    4.8170 hn        1 MOL      0.290423
    162 N14        -4.8420    1.4030   -0.4540 n         1 MOL     -0.040992
    163 C49        -3.9000    1.7440   -1.4680 c3        1 MOL     -0.155186
    164 C50        -4.2980    1.4690   -2.9360 c         1 MOL      0.422595
    165 O22        -3.8970    2.2620   -3.8260 o         1 MOL     -0.555919
    166 C51        -2.5340    1.1780   -1.0860 c3        1 MOL      0.067562
    167 C52        -1.8730    1.8410    0.1750 c3        1 MOL     -0.239714
    168 C53        -0.5140    1.0700    0.5610 c         1 MOL      0.846335
    169 O23        -0.4340   -0.1610    0.5770 o         1 MOL     -0.801028
    170 O24         0.4960    1.7390    0.8830 o         1 MOL     -0.801028
    171 H80        -4.5220    0.7200    0.2130 hn        1 MOL      0.112763
    172 H81        -3.7970    2.8340   -1.4850 h1        1 MOL      0.101083
    173 H82        -1.8400    1.2410   -1.9140 hc        1 MOL      0.074834
    174 H83        -2.7140    0.1140   -0.9190 hc        1 MOL      0.074834
    175 H84        -2.5970    1.6370    0.9610 hc        1 MOL      0.030661
    176 H85        -1.7290    2.9200    0.1140 hc        1 MOL      0.030661
    177 N15        -5.2660    0.5500   -3.1600 n         1 MOL     -0.002688
    178 C54        -5.9990    0.2730   -4.3790 c3        1 MOL     -0.308572
    179 H86        -5.4560   -0.4660   -4.9680 h1        1 MOL      0.109692
    180 H87        -6.9860   -0.1150   -4.1290 h1        1 MOL      0.109692
    181 H88        -6.1040    1.1910   -4.9570 h1        1 MOL      0.109692
    182 H89        -5.4250   -0.0470   -2.3630 hn        1 MOL      0.143517
    183 Ca1         1.8680   -0.6900    1.4340 Ca        1 MOL      1.741443
    184 O25         0.7780   -3.1510    2.0860 oh        1 MOL     -0.881906
    185 H90         1.6340   -3.2250    2.5150 ho        1 MOL      0.399318
    186 H91         0.1750   -3.5380    2.7200 ho        1 MOL      0.399318
    187 O26         0.3960    0.1890    3.6490 oh        1 MOL     -0.881906
    188 H92         1.2180    0.4850    4.0380 ho        1 MOL      0.399318
    189 H93        -0.2740    0.7340    4.0540 ho        1 MOL      0.399318
@<TRIPOS>BOND
     1    1    2 1   
     2    1    4 1   
     3    1    5 1   
     4    1    6 1   
     5    2    3 2   
     6    2    7 1   
     7    7    8 1   
     8    7   15 1   
     9    8    9 1   
    10    8   11 1   
    11    8   16 1   
    12    9   10 2   
    13    9   19 1   
    14   11   12 1   
    15   11   17 1   
    16   11   18 1   
    17   12   13 1   
    18   12   14 1   
    19   19   20 1   
    20   19   28 1   
    21   20   21 1   
    22   20   23 1   
    23   20   29 1   
    24   21   22 2   
    25   21   41 1   
    26   23   24 1   
    27   23   30 1   
    28   23   31 1   
    29   24   25 1   
    30   24   32 1   
    31   24   33 1   
    32   25   26 1   
    33   25   34 1   
    34   25   35 1   
    35   26   27 1   
    36   26   36 1   
    37   26   37 1   
    38   27   38 1   
    39   27   39 1   
    40   27   40 1   
    41   41   42 1   
    42   41   49 1   
    43   42   43 1   
    44   42   45 1   
    45   42   50 1   
    46   43   44 2   
    47   43   53 1   
    48   45   46 1   
    49   45   51 1   
    50   45   52 1   
    51   46   47 1   
    52   46   48 1   
    53   53   54 1   
    54   53   57 1   
    55   54   55 1   
    56   54   58 1   
    57   54   59 1   
    58   55   56 2   
    59   55   60 1   
    60   60   61 1   
    61   60   68 1   
    62   61   62 1   
    63   61   64 1   
    64   61   69 1   
    65   62   63 2   
    66   62   72 1   
    67   64   65 1   
    68   64   70 1   
    69   64   71 1   
    70   65   66 1   
    71   65   67 1   
    72   72   73 1   
    73   72   76 1   
    74   73   74 1   
    75   73   77 1   
    76   73   78 1   
    77   74   75 2   
    78   74   79 1   
    79   79   80 1   
    80   79   86 1   
    81   80   81 1   
    82   80   83 1   
    83   80   87 1   
    84   81   82 2   
    85   81   93 1   
    86   83   84 1   
    87   83   85 1   
    88   83   88 1   
    89   84   90 1   
    90   84   91 1   
    91   84   92 1   
    92   85   89 1   
    93   93   94 1   
    94   93  101 1   
    95   94   95 1   
    96   94   97 1   
    97   94  102 1   
    98   95   96 2   
    99   95  112 1   
   100   97   98 1   
   101   97   99 1   
   102   97  103 1   
   103   98  100 1   
   104   98  104 1   
   105   98  105 1   
   106   99  106 1   
   107   99  107 1   
   108   99  108 1   
   109  100  109 1   
   110  100  110 1   
   111  100  111 1   
   112  112  113 1   
   113  112  119 1   
   114  113  114 1   
   115  113  116 1   
   116  113  120 1   
   117  114  115 2   
   118  114  126 1   
   119  116  117 1   
   120  116  118 1   
   121  116  121 1   
   122  117  123 1   
   123  117  124 1   
   124  117  125 1   
   125  118  122 1   
   126  126  127 1   
   127  126  133 1   
   128  127  128 1   
   129  127  130 1   
   130  127  134 1   
   131  128  129 2   
   132  128  140 1   
   133  130  131 1   
   134  130  132 1   
   135  130  135 1   
   136  131  137 1   
   137  131  138 1   
   138  131  139 1   
   139  132  136 1   
   140  140  141 1   
   141  140  149 1   
   142  141  142 1   
   143  141  144 1   
   144  141  150 1   
   145  142  143 2   
   146  142  162 1   
   147  144  145 1   
   148  144  151 1   
   149  144  152 1   
   150  145  146 1   
   151  145  153 1   
   152  145  154 1   
   153  146  147 1   
   154  146  155 1   
   155  146  156 1   
   156  147  148 1   
   157  147  157 1   
   158  147  158 1   
   159  148  159 1   
   160  148  160 1   
   161  148  161 1   
   162  162  163 1   
   163  162  171 1   
   164  163  164 1   
   165  163  166 1   
   166  163  172 1   
   167  164  165 2   
   168  164  177 1   
   169  166  167 1   
   170  166  173 1   
   171  166  174 1   
   172  167  168 1   
   173  167  175 1   
   174  167  176 1   
   175  168  169 1   
   176  168  170 1   
   177  177  178 1   
   178  177  182 1   
   179  178  179 1   
   180  178  180 1   
   181  178  181 1   
   182  184  185 1   
   183  184  186 1   
   184  187  188 1   
   185  187  189 1   
@<TRIPOS>SUBSTRUCTURE
     1 MOL         1 TEMP              0 ****  ****    0 ROOT
