@<TRIPOS>MOLECULE
MOL
  179   176     1     0     0
SMALL
resp


@<TRIPOS>ATOM
      1 C1          1.3390    4.2930    5.3290 c3        1 MOL     -0.316846
      2 C2          0.8730    4.0030    3.9260 c         1 MOL      0.777738
      3 O1          1.3870    4.5480    2.9190 o         1 MOL     -0.688023
      4 H1          0.9850    3.5090    5.9980 hc        1 MOL      0.084199
      5 H2          2.4280    4.3250    5.3510 hc        1 MOL      0.084199
      6 H3          0.9400    5.2550    5.6530 hc        1 MOL      0.084199
      7 N1         -0.2840    3.2990    3.8410 n         1 MOL     -0.583419
      8 C3         -0.8230    2.8520    2.5420 c3        1 MOL      0.007771
      9 C4         -1.3310    4.0290    1.7100 c         1 MOL      0.608135
     10 O2         -2.0970    4.8730    2.1100 o         1 MOL     -0.555766
     11 C5         -1.9790    1.8810    2.8660 c3        1 MOL      0.032015
     12 C6         -2.6670    1.1630    1.6870 c         1 MOL      0.523423
     13 O3         -3.6350    0.4610    1.9240 o         1 MOL     -0.655444
     14 O4         -2.3760    1.4090    0.5030 o         1 MOL     -0.655444
     15 H4         -0.7340    2.8590    4.6420 hn        1 MOL      0.325492
     16 H5         -0.0890    2.2230    2.0430 h1        1 MOL      0.072692
     17 H6         -2.6690    2.4740    3.4610 hc        1 MOL      0.008084
     18 H7         -1.5780    1.0610    3.4700 hc        1 MOL      0.008084
     19 N2         -0.8170    4.0710    0.4420 n         1 MOL     -0.102368
     20 C7         -0.7860    5.3410   -0.3490 c3        1 MOL     -0.031399
     21 C8         -2.0010    5.6720   -1.2560 c         1 MOL      0.546171
     22 O5         -2.4150    6.8020   -1.4370 o         1 MOL     -0.562109
     23 C9          0.4600    5.2650   -1.2010 c3        1 MOL     -0.219269
     24 C10         1.7940    5.7380   -0.6430 c3        1 MOL      0.110595
     25 C11         1.7060    7.0840    0.0880 c3        1 MOL     -0.161765
     26 C12         3.1520    7.5260    0.3910 c3        1 MOL      0.066663
     27 N3          3.6250    6.7850    1.5380 n4        1 MOL     -0.442543
     28 H8         -0.2130    3.3290    0.1170 hn        1 MOL      0.161674
     29 H9         -0.6840    6.2580    0.2350 h1        1 MOL      0.024715
     30 H10         0.3300    5.8460   -2.1130 hc        1 MOL      0.060596
     31 H11         0.6180    4.2430   -1.5290 hc        1 MOL      0.060596
     32 H12         2.4750    5.7060   -1.4930 hc        1 MOL      0.002262
     33 H13         2.1340    4.9530    0.0360 hc        1 MOL      0.002262
     34 H14         1.1300    6.9860    1.0110 hc        1 MOL      0.105734
     35 H15         1.2770    7.8750   -0.5310 hc        1 MOL      0.105734
     36 H16         3.2200    8.5800    0.6920 hx        1 MOL      0.064341
     37 H17         3.8070    7.4030   -0.4780 hx        1 MOL      0.064341
     38 H18         3.0940    7.0350    2.3620 hn        1 MOL      0.352756
     39 H19         3.5870    5.8010    1.3480 hn        1 MOL      0.352756
     40 H20         4.6050    7.0130    1.6500 hn        1 MOL      0.352756
     41 N4         -2.6790    4.6120   -1.6020 n         1 MOL     -0.337618
     42 C13        -4.0420    4.5960   -2.2150 c3        1 MOL      0.177674
     43 C14        -5.0760    4.1040   -1.3000 c         1 MOL      0.327557
     44 O6         -6.2770    4.3400   -1.5590 o         1 MOL     -0.510812
     45 C15        -4.0300    3.8840   -3.5530 c3        1 MOL     -0.261363
     46 C16        -3.7830    2.3840   -3.4680 c         1 MOL      0.717511
     47 O7         -3.0860    1.9080   -2.5930 o         1 MOL     -0.697512
     48 O8         -4.2100    1.6250   -4.3790 o         1 MOL     -0.697512
     49 H21        -2.3490    3.6950   -1.3390 hn        1 MOL      0.064302
     50 H22        -4.3610    5.6110   -2.4340 h1        1 MOL      0.083954
     51 H23        -3.2830    4.4540   -4.1160 hc        1 MOL      0.066871
     52 H24        -4.9810    4.0280   -4.0710 hc        1 MOL      0.066871
     53 N5         -4.7300    3.5140   -0.1480 n         1 MOL     -0.086648
     54 C17        -5.5970    2.9250    0.8420 c3        1 MOL     -0.072042
     55 C18        -6.4530    1.7050    0.3060 c         1 MOL      0.367106
     56 O9         -7.6590    1.7570    0.5850 o         1 MOL     -0.508293
     57 H25        -3.7350    3.4760    0.0400 hn        1 MOL      0.080855
     58 H26        -6.1970    3.7320    1.2660 h1        1 MOL      0.090310
     59 H27        -5.0450    2.6140    1.7130 h1        1 MOL      0.090310
     60 N6         -5.8660    0.7420   -0.4820 n         1 MOL     -0.031485
     61 C19        -6.4840   -0.5470   -0.8650 c3        1 MOL     -0.302149
     62 C20        -6.4640   -1.6440    0.2610 c         1 MOL      0.337130
     63 O10        -6.9520   -2.7900    0.0890 o         1 MOL     -0.452960
     64 C21        -5.9050   -1.0570   -2.2580 c3        1 MOL     -0.020023
     65 C22        -4.4500   -1.3620   -2.3090 c         1 MOL      0.624492
     66 N7         -4.0080   -2.0720   -3.3030 n         1 MOL     -0.731563
     67 O11        -3.6410   -0.9560   -1.5090 o         1 MOL     -0.681056
     68 H28        -4.8850    0.8750   -0.6910 hn        1 MOL      0.158649
     69 H29        -7.5190   -0.2270   -0.9840 h1        1 MOL      0.176566
     70 H30        -6.0580   -0.2620   -2.9990 hc        1 MOL      0.064945
     71 H31        -6.4560   -1.9030   -2.6880 hc        1 MOL      0.064945
     72 H32        -4.6790   -2.3500   -4.0000 hn        1 MOL      0.341355
     73 H33        -3.0460   -2.3700   -3.4190 hn        1 MOL      0.341355
     74 N8         -5.8110   -1.3610    1.3770 n         1 MOL     -0.048748
     75 C23        -5.7180   -2.3070    2.4890 c3        1 MOL     -0.415832
     76 C24        -4.4880   -3.1900    2.3470 c         1 MOL      0.765319
     77 O12        -4.2590   -4.1050    3.1550 o         1 MOL     -0.588505
     78 H34        -5.2030   -0.5470    1.3630 hn        1 MOL      0.168353
     79 H35        -6.5700   -2.9860    2.4640 h1        1 MOL      0.162000
     80 H36        -5.5370   -1.8030    3.4360 h1        1 MOL      0.162000
     81 N9         -3.6280   -2.8370    1.3440 n         1 MOL     -0.651300
     82 C25        -2.4330   -3.5430    0.9300 c3        1 MOL      0.309466
     83 C26        -1.1600   -2.7120    0.6440 c         1 MOL      0.455778
     84 O13        -1.3200   -1.6110    0.0310 o         1 MOL     -0.684169
     85 C27        -2.6870   -4.5720   -0.2380 c3        1 MOL     -0.006632
     86 C28        -3.8230   -5.5080    0.1020 ca        1 MOL     -0.089875
     87 C29        -5.0720   -5.3400   -0.5150 ca        1 MOL     -0.021343
     88 C30        -3.6710   -6.6990    0.8760 ca        1 MOL     -0.021343
     89 C31        -6.1110   -6.2520   -0.3440 ca        1 MOL     -0.337463
     90 C32        -4.6720   -7.6890    0.9600 ca        1 MOL     -0.337463
     91 C33        -5.9560   -7.4390    0.3620 ca        1 MOL      0.385795
     92 O14        -7.0610   -8.3070    0.4090 oh        1 MOL     -0.486996
     93 H37        -3.7910   -1.9940    0.8110 hn        1 MOL      0.507706
     94 H38        -2.2220   -4.2300    1.7610 h1        1 MOL     -0.010527
     95 H39        -1.8200   -5.1720   -0.4930 hc        1 MOL      0.000541
     96 H40        -2.8720   -4.0650   -1.1860 hc        1 MOL      0.000541
     97 H41        -5.2490   -4.4900   -1.1550 ha        1 MOL      0.080782
     98 H42        -2.6770   -6.9900    1.2080 ha        1 MOL      0.080782
     99 H43        -7.0700   -6.0410   -0.7710 ha        1 MOL      0.158945
    100 H44        -4.3880   -8.6100    1.4360 ha        1 MOL      0.158945
    101 H45        -6.8770   -9.0080    1.0460 ho        1 MOL      0.353704
    102 N10         0.0320   -3.1900    1.0360 n         1 MOL     -0.447199
    103 C34         1.2860   -2.5460    0.9990 c3        1 MOL     -0.028044
    104 C35         2.3640   -3.4500    0.4740 c         1 MOL      0.471178
    105 O15         2.5840   -4.5720    0.9660 o         1 MOL     -0.524673
    106 C36         1.6240   -2.1570    2.4230 c3        1 MOL      0.079329
    107 C37         0.6890   -1.0730    2.9890 c3        1 MOL      0.392410
    108 C38         3.0930   -1.7350    2.6480 c3        1 MOL     -0.086615
    109 C39         1.1250   -0.3750    4.2760 c3        1 MOL     -0.219268
    110 H46         0.0610   -4.1200    1.4300 hn        1 MOL      0.286151
    111 H47         1.3090   -1.7100    0.3100 h1        1 MOL      0.135506
    112 H48         1.4530   -2.9930    3.1030 hc        1 MOL      0.003337
    113 H49        -0.2440   -1.6170    3.1660 hc        1 MOL     -0.090009
    114 H50         0.6300   -0.2700    2.2490 hc        1 MOL     -0.090009
    115 H51         3.2950   -0.8420    2.0490 hc        1 MOL      0.025913
    116 H52         3.2440   -1.5780    3.7100 hc        1 MOL      0.025913
    117 H53         3.7990   -2.5340    2.4280 hc        1 MOL      0.025913
    118 H54         1.4910   -1.1020    5.0050 hc        1 MOL      0.027345
    119 H55         1.8480    0.4210    4.1210 hc        1 MOL      0.027345
    120 H56         0.3050    0.1920    4.7130 hc        1 MOL      0.027345
    121 N11         3.1890   -2.9850   -0.4640 n         1 MOL     -0.346494
    122 C40         4.2630   -3.8180   -1.0200 c3        1 MOL      0.067704
    123 C41         5.6110   -3.5460   -0.3170 c         1 MOL      0.366825
    124 O16         5.6890   -2.7000    0.6120 o         1 MOL     -0.397585
    125 C42         4.3670   -3.5720   -2.5160 c3        1 MOL     -0.069976
    126 O17         4.7710   -2.2390   -2.6680 oh        1 MOL     -0.474231
    127 H57         3.0970   -2.1050   -0.9550 hn        1 MOL      0.255666
    128 H58         3.9750   -4.8650   -0.9590 h1        1 MOL      0.080788
    129 H59         3.4030   -3.6850   -3.0170 h1        1 MOL      0.076769
    130 H60         5.1300   -4.2510   -2.8890 h1        1 MOL      0.076769
    131 H61         4.2110   -1.7920   -3.3160 ho        1 MOL      0.397071
    132 N12         6.7000   -4.1530   -0.7170 n         1 MOL     -0.366140
    133 C43         8.1120   -3.7490   -0.2940 c3        1 MOL      0.090349
    134 C44         8.5140   -2.3260   -0.6700 c         1 MOL      0.578729
    135 O18         9.1240   -1.6940    0.1570 o         1 MOL     -0.516637
    136 C45         9.0310   -4.8390   -0.8090 c3        1 MOL     -0.286530
    137 H62         6.5420   -4.9960   -1.2400 hn        1 MOL      0.280839
    138 H63         8.0930   -3.8490    0.7920 h1        1 MOL      0.105649
    139 H64        10.0530   -4.5800   -0.5350 hc        1 MOL      0.084351
    140 H65         8.6360   -5.7650   -0.3910 hc        1 MOL      0.084351
    141 H66         8.8410   -4.9350   -1.8780 hc        1 MOL      0.084351
    142 N13         8.1560   -1.8440   -1.8400 n         1 MOL     -0.487973
    143 C46         8.5270   -0.4220   -2.1950 c3        1 MOL      0.133571
    144 C47         7.6730    0.5720   -1.4080 c         1 MOL      0.426975
    145 O19         8.2210    1.5840   -1.0830 o         1 MOL     -0.524627
    146 C48         8.4190   -0.3270   -3.7630 c3        1 MOL     -0.231752
    147 H67         7.7300   -2.3860   -2.5770 hn        1 MOL      0.299644
    148 H68         9.5550   -0.2880   -1.8510 h1        1 MOL      0.093898
    149 H69         7.4570   -0.7510   -4.0610 hc        1 MOL      0.068151
    150 H70         8.5170    0.7230   -4.0270 hc        1 MOL      0.068151
    151 H71         9.2210   -0.8650   -4.2570 hc        1 MOL      0.068151
    152 N14         6.4690    0.1720   -0.9820 n         1 MOL     -0.139226
    153 C49         5.5170    0.9880   -0.1100 c3        1 MOL     -0.199572
    154 C50         5.8270    0.8000    1.3900 c         1 MOL      0.504594
    155 O20         5.3480    1.5580    2.2170 o         1 MOL     -0.564138
    156 C51         4.0690    0.6270   -0.4690 c3        1 MOL     -0.027725
    157 C52         3.0220    1.6240   -0.1030 c3        1 MOL     -0.005736
    158 C53         1.6720    1.2680   -0.7030 c         1 MOL      0.788238
    159 O21         1.5450    0.1740   -1.3120 o         1 MOL     -0.805961
    160 O22         0.6770    1.9490   -0.4430 o         1 MOL     -0.805961
    161 H72         6.0600   -0.6410   -1.4120 hn        1 MOL      0.093635
    162 H73         5.7360    2.0430   -0.2720 h1        1 MOL      0.123117
    163 H74         3.8500   -0.3780   -0.1150 hc        1 MOL      0.016746
    164 H75         4.1020    0.4630   -1.5550 hc        1 MOL      0.016746
    165 H76         3.3060    2.6530   -0.3430 hc        1 MOL      0.009986
    166 H77         3.0160    1.5280    0.9770 hc        1 MOL      0.009986
    167 N15         6.6890   -0.2030    1.7070 n         1 MOL     -0.082948
    168 C54         7.2600   -0.4520    3.0550 c3        1 MOL     -0.176616
    169 H78         7.1810   -1.5130    3.2930 h1        1 MOL      0.085116
    170 H79         8.3080   -0.1540    3.0670 h1        1 MOL      0.085116
    171 H80         6.7090    0.1270    3.7970 h1        1 MOL      0.085116
    172 H81         6.8680   -0.9040    1.0120 hn        1 MOL      0.060994
    173 Ca1        -1.1770    0.5100   -1.5690 Ca        1 MOL      1.805629
    174 O23        -0.5400   -1.6610   -3.0520 oh        1 MOL     -0.829126
    175 H82        -0.4460   -2.4270   -2.4880 ho        1 MOL      0.418668
    176 H83        -0.5360   -2.0180   -3.9380 ho        1 MOL      0.418668
    177 O24        -0.2700    1.5980   -3.8380 oh        1 MOL     -0.829126
    178 H84        -0.6660    1.5460   -4.7130 ho        1 MOL      0.418668
    179 H85         0.6150    1.9270   -3.9890 ho        1 MOL      0.418668
@<TRIPOS>BOND
     1    1    2 1   
     2    1    4 1   
     3    1    5 1   
     4    1    6 1   
     5    2    3 2   
     6    2    7 1   
     7    7    8 1   
     8    7   15 1   
     9    8    9 1   
    10    8   11 1   
    11    8   16 1   
    12    9   10 2   
    13    9   19 1   
    14   11   12 1   
    15   11   17 1   
    16   11   18 1   
    17   12   13 1   
    18   12   14 1   
    19   19   20 1   
    20   19   28 1   
    21   20   21 1   
    22   20   23 1   
    23   20   29 1   
    24   21   22 2   
    25   21   41 1   
    26   23   24 1   
    27   23   30 1   
    28   23   31 1   
    29   24   25 1   
    30   24   32 1   
    31   24   33 1   
    32   25   26 1   
    33   25   34 1   
    34   25   35 1   
    35   26   27 1   
    36   26   36 1   
    37   26   37 1   
    38   27   38 1   
    39   27   39 1   
    40   27   40 1   
    41   41   42 1   
    42   41   49 1   
    43   42   43 1   
    44   42   45 1   
    45   42   50 1   
    46   43   44 2   
    47   43   53 1   
    48   45   46 1   
    49   45   51 1   
    50   45   52 1   
    51   46   47 1   
    52   46   48 1   
    53   53   54 1   
    54   53   57 1   
    55   54   55 1   
    56   54   58 1   
    57   54   59 1   
    58   55   56 2   
    59   55   60 1   
    60   60   61 1   
    61   60   68 1   
    62   61   62 1   
    63   61   64 1   
    64   61   69 1   
    65   62   63 2   
    66   62   74 1   
    67   64   65 1   
    68   64   70 1   
    69   64   71 1   
    70   65   66 1   
    71   65   67 2   
    72   66   72 1   
    73   66   73 1   
    74   74   75 1   
    75   74   78 1   
    76   75   76 1   
    77   75   79 1   
    78   75   80 1   
    79   76   77 2   
    80   76   81 1   
    81   81   82 1   
    82   81   93 1   
    83   82   83 1   
    84   82   85 1   
    85   82   94 1   
    86   83   84 2   
    87   83  102 1   
    88   85   86 1   
    89   85   95 1   
    90   85   96 1   
    91   86   87 ar  
    92   86   88 ar  
    93   87   89 ar  
    94   87   97 1   
    95   88   90 ar  
    96   88   98 1   
    97   89   91 ar  
    98   89   99 1   
    99   90   91 ar  
   100   90  100 1   
   101   91   92 1   
   102   92  101 1   
   103  102  103 1   
   104  102  110 1   
   105  103  104 1   
   106  103  106 1   
   107  103  111 1   
   108  104  105 2   
   109  104  121 1   
   110  106  107 1   
   111  106  108 1   
   112  106  112 1   
   113  107  109 1   
   114  107  113 1   
   115  107  114 1   
   116  108  115 1   
   117  108  116 1   
   118  108  117 1   
   119  109  118 1   
   120  109  119 1   
   121  109  120 1   
   122  121  122 1   
   123  121  127 1   
   124  122  123 1   
   125  122  125 1   
   126  122  128 1   
   127  123  124 2   
   128  123  132 1   
   129  125  126 1   
   130  125  129 1   
   131  125  130 1   
   132  126  131 1   
   133  132  133 1   
   134  132  137 1   
   135  133  134 1   
   136  133  136 1   
   137  133  138 1   
   138  134  135 2   
   139  134  142 1   
   140  136  139 1   
   141  136  140 1   
   142  136  141 1   
   143  142  143 1   
   144  142  147 1   
   145  143  144 1   
   146  143  146 1   
   147  143  148 1   
   148  144  145 2   
   149  144  152 1   
   150  146  149 1   
   151  146  150 1   
   152  146  151 1   
   153  152  153 1   
   154  152  161 1   
   155  153  154 1   
   156  153  156 1   
   157  153  162 1   
   158  154  155 2   
   159  154  167 1   
   160  156  157 1   
   161  156  163 1   
   162  156  164 1   
   163  157  158 1   
   164  157  165 1   
   165  157  166 1   
   166  158  159 1   
   167  158  160 1   
   168  167  168 1   
   169  167  172 1   
   170  168  169 1   
   171  168  170 1   
   172  168  171 1   
   173  174  175 1   
   174  174  176 1   
   175  177  178 1   
   176  177  179 1   
@<TRIPOS>SUBSTRUCTURE
     1 MOL         1 TEMP              0 ****  ****    0 ROOT
