@<TRIPOS>MOLECULE
MOL
  179   176     1     0     0
SMALL
resp


@<TRIPOS>ATOM
      1 C1          1.3650    4.1780    6.5280 c3        1 MOL     -0.373329
      2 C2          1.3520    3.4720    5.2150 c         1 MOL      0.699349
      3 O1          2.4020    3.3640    4.5430 o         1 MOL     -0.549831
      4 H1          0.5680    3.7840    7.1590 hc        1 MOL      0.103105
      5 H2          2.3260    4.0190    7.0160 hc        1 MOL      0.103105
      6 H3          1.2080    5.2440    6.3690 hc        1 MOL      0.103105
      7 N1          0.1890    3.1850    4.5820 n         1 MOL     -0.620136
      8 C3         -0.0280    2.8360    3.1450 c3        1 MOL     -0.025749
      9 C4         -0.0220    4.0680    2.1330 c         1 MOL      0.711366
     10 O2         -0.4320    5.2290    2.4330 o         1 MOL     -0.560547
     11 C5         -1.3780    2.0540    2.9560 c3        1 MOL      0.158161
     12 C6         -1.5180    1.4200    1.5490 c         1 MOL      0.400489
     13 O3         -0.5280    1.2510    0.7440 o         1 MOL     -0.645239
     14 O4         -2.6370    1.0010    1.1400 o         1 MOL     -0.645239
     15 H4         -0.5700    3.0500    5.2320 hn        1 MOL      0.308347
     16 H5          0.7630    2.1500    2.8620 h1        1 MOL      0.093913
     17 H6         -2.1470    2.8240    3.0730 hc        1 MOL      0.001038
     18 H7         -1.5620    1.3750    3.7910 hc        1 MOL      0.001038
     19 N2          0.4590    3.7930    0.9150 n         1 MOL     -0.539238
     20 C7          0.7900    4.8300   -0.1000 c3        1 MOL      0.038597
     21 C8         -0.4950    5.3550   -0.9180 c         1 MOL      0.398164
     22 O5         -0.5600    6.5430   -1.1100 o         1 MOL     -0.519099
     23 C9          1.9120    4.3300   -1.0790 c3        1 MOL      0.028530
     24 C10         2.4720    5.5500   -1.8270 c3        1 MOL     -0.293323
     25 C11         3.6820    5.0260   -2.6520 c3        1 MOL     -0.114541
     26 C12         4.2600    6.3060   -3.3910 c3        1 MOL      0.182949
     27 N3          5.3300    6.0980   -4.4180 n4        1 MOL     -0.443830
     28 H8          0.5500    2.8050    0.7010 hn        1 MOL      0.255686
     29 H9          1.2740    5.6810    0.3870 h1        1 MOL      0.105875
     30 H10         1.5620    3.6770   -1.8740 hc        1 MOL      0.085886
     31 H11         2.6630    3.7630   -0.5320 hc        1 MOL      0.085886
     32 H12         2.8240    6.3460   -1.1750 hc        1 MOL      0.100954
     33 H13         1.7730    6.1330   -2.4340 hc        1 MOL      0.100954
     34 H14         3.3500    4.2950   -3.3800 hc        1 MOL      0.071698
     35 H15         4.4630    4.5800   -2.0340 hc        1 MOL      0.071698
     36 H16         4.6030    7.1050   -2.7350 hx        1 MOL      0.061208
     37 H17         3.4650    6.8190   -3.9330 hx        1 MOL      0.061208
     38 H18         5.1770    6.7130   -5.2080 hn        1 MOL      0.338879
     39 H19         6.2560    6.2180   -4.0510 hn        1 MOL      0.338879
     40 H20         5.3440    5.1730   -4.8260 hn        1 MOL      0.338879
     41 N4         -1.4930    4.4930   -1.1690 n         1 MOL     -0.231475
     42 C13        -2.8450    4.9370   -1.6880 c3        1 MOL      0.091798
     43 C14        -4.0450    4.6310   -0.7730 c         1 MOL      0.412427
     44 O6         -5.1620    5.0640   -1.0840 o         1 MOL     -0.519516
     45 C15        -3.0420    4.1730   -2.9970 c3        1 MOL     -0.364036
     46 C16        -2.9600    2.6250   -3.0320 c         1 MOL      0.854554
     47 O7         -2.7900    1.9130   -2.0600 o         1 MOL     -0.714320
     48 O8         -2.8770    2.1710   -4.1840 o         1 MOL     -0.714320
     49 H21        -1.2760    3.5060   -1.1890 hn        1 MOL      0.211253
     50 H22        -2.8480    6.0230   -1.8080 h1        1 MOL      0.097512
     51 H23        -2.2220    4.3910   -3.6770 hc        1 MOL      0.089278
     52 H24        -4.0260    4.4250   -3.3930 hc        1 MOL      0.089278
     53 N5         -3.8440    3.8450    0.2880 n         1 MOL     -0.100791
     54 C17        -4.7950    3.5930    1.3870 c3        1 MOL     -0.223037
     55 C18        -5.9470    2.5990    0.9660 c         1 MOL      0.554498
     56 O9         -7.0410    2.8060    1.4050 o         1 MOL     -0.565167
     57 H25        -2.9050    3.5060    0.4390 hn        1 MOL      0.068914
     58 H26        -5.2920    4.5270    1.6410 h1        1 MOL      0.112385
     59 H27        -4.2430    3.1330    2.2100 h1        1 MOL      0.112385
     60 N6         -5.6030    1.5970    0.1910 n         1 MOL     -0.096530
     61 C19        -6.4950    0.7240   -0.4870 c3        1 MOL     -0.027971
     62 C20        -6.9810   -0.5180    0.2560 c         1 MOL      0.358486
     63 O10        -7.8680   -1.2060   -0.2090 o         1 MOL     -0.516782
     64 C21        -5.8460    0.3370   -1.8200 c3        1 MOL     -0.191006
     65 C22        -5.0220   -0.9150   -1.7800 c         1 MOL      0.538035
     66 N7         -5.4310   -1.9640   -2.4300 n         1 MOL     -0.694031
     67 O11        -4.1980   -0.9800   -0.9170 o         1 MOL     -0.362741
     68 H28        -4.6360    1.4250   -0.0240 hn        1 MOL      0.008362
     69 H29        -7.3940    1.2810   -0.7450 h1        1 MOL      0.117958
     70 H30        -5.2640    1.1760   -2.1890 hc        1 MOL      0.075637
     71 H31        -6.6650    0.2290   -2.5350 hc        1 MOL      0.075637
     72 H32        -6.2470   -2.0380   -3.0230 hn        1 MOL      0.352155
     73 H33        -4.8010   -2.7590   -2.3850 hn        1 MOL      0.352155
     74 N8         -6.3560   -0.8970    1.3340 n         1 MOL     -0.194379
     75 C23        -6.7240   -2.1200    2.0960 c3        1 MOL     -0.039345
     76 C24        -5.5040   -2.9460    2.5060 c         1 MOL      0.526511
     77 O12        -5.5680   -3.7330    3.4380 o         1 MOL     -0.584112
     78 H34        -5.7230   -0.2690    1.8030 hn        1 MOL      0.204069
     79 H35        -7.4420   -2.8250    1.6950 h1        1 MOL      0.081029
     80 H36        -7.1090   -1.8040    3.0650 h1        1 MOL      0.081029
     81 N9         -4.4400   -2.9130    1.7350 n         1 MOL     -0.286861
     82 C25        -3.2040   -3.6980    1.8750 c3        1 MOL      0.060047
     83 C26        -1.9320   -2.8820    1.5090 c         1 MOL      0.390907
     84 O13        -2.0190   -1.9020    0.7770 o         1 MOL     -0.482206
     85 C27        -3.2550   -5.0590    1.1810 c3        1 MOL     -0.140444
     86 C28        -3.6130   -5.1590   -0.2990 ca        1 MOL      0.145178
     87 C29        -4.9730   -5.3440   -0.6730 ca        1 MOL     -0.253725
     88 C30        -2.6490   -5.0070   -1.3320 ca        1 MOL     -0.253725
     89 C31        -5.4170   -5.4670   -2.0230 ca        1 MOL     -0.135968
     90 C32        -3.0050   -5.0690   -2.6720 ca        1 MOL     -0.135968
     91 C33        -4.3610   -5.2910   -3.0230 ca        1 MOL      0.184503
     92 O14        -4.7760   -5.5000   -4.3270 oh        1 MOL     -0.460695
     93 H37        -4.4970   -2.3020    0.9310 hn        1 MOL      0.142130
     94 H38        -3.0870   -3.8300    2.9570 h1        1 MOL      0.077402
     95 H39        -4.0310   -5.6200    1.6990 hc        1 MOL      0.066805
     96 H40        -2.3530   -5.6210    1.4470 hc        1 MOL      0.066805
     97 H41        -5.7710   -5.4240    0.0540 ha        1 MOL      0.167211
     98 H42        -1.6090   -4.9030   -1.0690 ha        1 MOL      0.167211
     99 H43        -6.4640   -5.5700   -2.2570 ha        1 MOL      0.137479
    100 H44        -2.2850   -4.8500   -3.4530 ha        1 MOL      0.137479
    101 H45        -4.1240   -5.1110   -4.9160 ho        1 MOL      0.341580
    102 N10        -0.8090   -3.2420    2.0830 n         1 MOL     -0.361377
    103 C34         0.5720   -2.7050    1.8020 c3        1 MOL      0.100639
    104 C35         1.4800   -3.7350    1.1890 c         1 MOL      0.601659
    105 O15         1.3060   -4.9060    1.5330 o         1 MOL     -0.569716
    106 C36         1.1060   -2.0830    3.0900 c3        1 MOL      0.046890
    107 C37         0.0830   -1.2500    3.9170 c3        1 MOL      0.120791
    108 C38         2.2970   -1.1200    2.7280 c3        1 MOL     -0.386838
    109 C39         0.6970   -0.7710    5.2420 c3        1 MOL     -0.155997
    110 H46        -0.8440   -3.9770    2.7860 hn        1 MOL      0.252847
    111 H47         0.3720   -1.8920    1.1010 h1        1 MOL      0.023605
    112 H48         1.5220   -2.9490    3.6110 hc        1 MOL      0.004853
    113 H49        -0.8170   -1.8020    4.1960 hc        1 MOL     -0.004882
    114 H50        -0.2210   -0.3230    3.4080 hc        1 MOL     -0.004882
    115 H51         1.9490   -0.1090    2.5340 hc        1 MOL      0.093637
    116 H52         3.0150   -1.1000    3.5490 hc        1 MOL      0.093637
    117 H53         2.8740   -1.5420    1.9060 hc        1 MOL      0.093637
    118 H54         1.4680   -0.0030    5.1710 hc        1 MOL      0.029695
    119 H55        -0.1640   -0.3100    5.7280 hc        1 MOL      0.029695
    120 H56         1.0430   -1.5620    5.9030 hc        1 MOL      0.029695
    121 N11         2.2700   -3.3050    0.2340 n         1 MOL     -0.509656
    122 C40         3.4000   -4.1030   -0.2790 c3        1 MOL      0.187665
    123 C41         4.7570   -3.7780    0.3560 c         1 MOL      0.502812
    124 O16         4.8950   -2.7120    0.9690 o         1 MOL     -0.431933
    125 C42         3.5520   -4.0410   -1.8030 c3        1 MOL     -0.219106
    126 O17         4.1050   -2.8140   -2.2390 oh        1 MOL     -0.451162
    127 H57         2.1930   -2.3380   -0.0410 hn        1 MOL      0.378581
    128 H58         3.2670   -5.1590   -0.0370 h1        1 MOL      0.037220
    129 H59         2.5160   -4.0300   -2.1280 h1        1 MOL      0.118113
    130 H60         4.0230   -4.9070   -2.2660 h1        1 MOL      0.118113
    131 H61         3.9530   -2.5650   -3.1530 ho        1 MOL      0.396958
    132 N12         5.8400   -4.4910    0.1340 n         1 MOL     -0.501052
    133 C43         7.2250   -4.1840    0.4820 c3        1 MOL      0.147727
    134 C44         7.6950   -2.7580    0.0220 c         1 MOL      0.418013
    135 O18         8.3500   -2.0750    0.7490 o         1 MOL     -0.502630
    136 C45         8.0640   -5.2660   -0.1290 c3        1 MOL     -0.145234
    137 H62         5.7950   -5.3140   -0.4480 hn        1 MOL      0.276735
    138 H63         7.2730   -4.1760    1.5710 h1        1 MOL      0.067003
    139 H64         7.6910   -6.2960   -0.0700 hc        1 MOL      0.048164
    140 H65         8.1310   -4.9750   -1.1720 hc        1 MOL      0.048164
    141 H66         9.0570   -5.2910    0.3170 hc        1 MOL      0.048164
    142 N13         7.3730   -2.3790   -1.1820 n         1 MOL     -0.175956
    143 C46         7.8150   -1.1650   -1.8010 c3        1 MOL     -0.023077
    144 C47         6.9320   -0.0210   -1.2970 c         1 MOL      0.452526
    145 O19         7.4720    1.0770   -1.0940 o         1 MOL     -0.544212
    146 C48         7.5480   -1.2910   -3.2950 c3        1 MOL     -0.164843
    147 H67         6.6430   -2.8600   -1.6790 hn        1 MOL      0.163876
    148 H68         8.8740   -1.0380   -1.5550 h1        1 MOL      0.123663
    149 H69         7.8540   -2.2760   -3.6260 hc        1 MOL      0.047687
    150 H70         6.4900   -1.1980   -3.5440 hc        1 MOL      0.047687
    151 H71         8.1480   -0.5510   -3.8280 hc        1 MOL      0.047687
    152 N14         5.6140   -0.0520   -1.1130 n         1 MOL     -0.172920
    153 C49         4.8810    1.1070   -0.4650 c3        1 MOL     -0.333472
    154 C50         5.4230    1.3850    0.9400 c         1 MOL      0.612180
    155 O20         5.4670    2.4480    1.4840 o         1 MOL     -0.535069
    156 C51         3.3800    0.7940   -0.4180 c3        1 MOL      0.029222
    157 C52         2.8150    0.4010   -1.8170 c3        1 MOL     -0.045711
    158 C53         1.3070    0.1530   -1.7480 c         1 MOL      0.709442
    159 O21         0.8500   -0.8630   -1.2420 o         1 MOL     -0.745745
    160 O22         0.5870    0.9930   -2.3110 o         1 MOL     -0.745745
    161 H72         5.0880   -0.8770   -1.3640 hn        1 MOL      0.165258
    162 H73         5.0750    2.0280   -1.0130 h1        1 MOL      0.134801
    163 H74         2.8490    1.6230    0.0560 hc        1 MOL      0.021436
    164 H75         3.2430   -0.1680    0.0800 hc        1 MOL      0.021436
    165 H76         3.2380   -0.4950   -2.2710 hc        1 MOL     -0.014372
    166 H77         3.0430    1.1920   -2.5290 hc        1 MOL     -0.014372
    167 N15         5.8210    0.3200    1.6860 n         1 MOL     -0.183842
    168 C54         6.5400    0.4250    2.9960 c3        1 MOL     -0.253937
    169 H78         7.1200   -0.4810    3.1660 h1        1 MOL      0.109784
    170 H79         7.2090    1.2860    2.9760 h1        1 MOL      0.109784
    171 H80         5.8140    0.5480    3.8000 h1        1 MOL      0.109784
    172 H81         5.9990   -0.5610    1.2210 hn        1 MOL      0.158384
    173 Ca1        -1.6050   -0.1110   -1.0980 Ca        1 MOL      1.723328
    174 O23        -1.2680   -2.4670   -2.1590 oh        1 MOL     -0.905641
    175 H82        -0.3230   -2.4360   -2.0000 ho        1 MOL      0.406642
    176 H83        -1.3550   -2.8120   -3.0470 ho        1 MOL      0.406642
    177 O24        -2.8580   -0.4710   -3.6990 oh        1 MOL     -0.905641
    178 H84        -3.0400   -0.8910   -4.5380 ho        1 MOL      0.406642
    179 H85        -2.8880    0.4710   -3.8940 ho        1 MOL      0.406642
@<TRIPOS>BOND
     1    1    2 1   
     2    1    4 1   
     3    1    5 1   
     4    1    6 1   
     5    2    3 2   
     6    2    7 1   
     7    7    8 1   
     8    7   15 1   
     9    8    9 1   
    10    8   11 1   
    11    8   16 1   
    12    9   10 2   
    13    9   19 1   
    14   11   12 1   
    15   11   17 1   
    16   11   18 1   
    17   12   13 1   
    18   12   14 1   
    19   19   20 1   
    20   19   28 1   
    21   20   21 1   
    22   20   23 1   
    23   20   29 1   
    24   21   22 2   
    25   21   41 1   
    26   23   24 1   
    27   23   30 1   
    28   23   31 1   
    29   24   25 1   
    30   24   32 1   
    31   24   33 1   
    32   25   26 1   
    33   25   34 1   
    34   25   35 1   
    35   26   27 1   
    36   26   36 1   
    37   26   37 1   
    38   27   38 1   
    39   27   39 1   
    40   27   40 1   
    41   41   42 1   
    42   41   49 1   
    43   42   43 1   
    44   42   45 1   
    45   42   50 1   
    46   43   44 2   
    47   43   53 1   
    48   45   46 1   
    49   45   51 1   
    50   45   52 1   
    51   46   47 1   
    52   46   48 1   
    53   53   54 1   
    54   53   57 1   
    55   54   55 1   
    56   54   58 1   
    57   54   59 1   
    58   55   56 2   
    59   55   60 1   
    60   60   61 1   
    61   60   68 1   
    62   61   62 1   
    63   61   64 1   
    64   61   69 1   
    65   62   63 2   
    66   62   74 1   
    67   64   65 1   
    68   64   70 1   
    69   64   71 1   
    70   65   66 1   
    71   65   67 2   
    72   66   72 1   
    73   66   73 1   
    74   74   75 1   
    75   74   78 1   
    76   75   76 1   
    77   75   79 1   
    78   75   80 1   
    79   76   77 2   
    80   76   81 1   
    81   81   82 1   
    82   81   93 1   
    83   82   83 1   
    84   82   85 1   
    85   82   94 1   
    86   83   84 2   
    87   83  102 1   
    88   85   86 1   
    89   85   95 1   
    90   85   96 1   
    91   86   87 ar  
    92   86   88 ar  
    93   87   89 ar  
    94   87   97 1   
    95   88   90 ar  
    96   88   98 1   
    97   89   91 ar  
    98   89   99 1   
    99   90   91 ar  
   100   90  100 1   
   101   91   92 1   
   102   92  101 1   
   103  102  103 1   
   104  102  110 1   
   105  103  104 1   
   106  103  106 1   
   107  103  111 1   
   108  104  105 2   
   109  104  121 1   
   110  106  107 1   
   111  106  108 1   
   112  106  112 1   
   113  107  109 1   
   114  107  113 1   
   115  107  114 1   
   116  108  115 1   
   117  108  116 1   
   118  108  117 1   
   119  109  118 1   
   120  109  119 1   
   121  109  120 1   
   122  121  122 1   
   123  121  127 1   
   124  122  123 1   
   125  122  125 1   
   126  122  128 1   
   127  123  124 2   
   128  123  132 1   
   129  125  126 1   
   130  125  129 1   
   131  125  130 1   
   132  126  131 1   
   133  132  133 1   
   134  132  137 1   
   135  133  134 1   
   136  133  136 1   
   137  133  138 1   
   138  134  135 2   
   139  134  142 1   
   140  136  139 1   
   141  136  140 1   
   142  136  141 1   
   143  142  143 1   
   144  142  147 1   
   145  143  144 1   
   146  143  146 1   
   147  143  148 1   
   148  144  145 2   
   149  144  152 1   
   150  146  149 1   
   151  146  150 1   
   152  146  151 1   
   153  152  153 1   
   154  152  161 1   
   155  153  154 1   
   156  153  156 1   
   157  153  162 1   
   158  154  155 2   
   159  154  167 1   
   160  156  157 1   
   161  156  163 1   
   162  156  164 1   
   163  157  158 1   
   164  157  165 1   
   165  157  166 1   
   166  158  159 1   
   167  158  160 1   
   168  167  168 1   
   169  167  172 1   
   170  168  169 1   
   171  168  170 1   
   172  168  171 1   
   173  174  175 1   
   174  174  176 1   
   175  177  178 1   
   176  177  179 1   
@<TRIPOS>SUBSTRUCTURE
     1 MOL         1 TEMP              0 ****  ****    0 ROOT
