@<TRIPOS>MOLECULE
MOL
  179   176     1     0     0
SMALL
resp


@<TRIPOS>ATOM
      1 C1          1.5430    2.7740    5.2270 c3        1 MOL     -0.498348
      2 C2          0.7500    2.4670    3.9400 c         1 MOL      0.725077
      3 O1          1.2760    2.5450    2.8310 o         1 MOL     -0.600260
      4 H1          0.9810    3.4770    5.8420 hc        1 MOL      0.138907
      5 H2          1.7020    1.8510    5.7850 hc        1 MOL      0.138907
      6 H3          2.5060    3.2110    4.9660 hc        1 MOL      0.138907
      7 N1         -0.5720    2.2000    4.0280 n         1 MOL     -0.605681
      8 C3         -1.3470    1.9820    2.7690 c3        1 MOL      0.225792
      9 C4         -1.9250    3.2660    2.0980 c         1 MOL      0.405855
     10 O2         -3.0610    3.6850    2.3490 o         1 MOL     -0.442003
     11 C5         -2.4320    0.9640    3.1680 c3        1 MOL     -0.038596
     12 C6         -3.3970    0.5200    2.0670 c         1 MOL      0.588438
     13 O3         -4.4170   -0.1470    2.3580 o         1 MOL     -0.670442
     14 O4         -3.0740    0.7460    0.8890 o         1 MOL     -0.670442
     15 H4         -1.0980    2.1710    4.8850 hn        1 MOL      0.322486
     16 H5         -0.6710    1.5490    2.0290 h1        1 MOL      0.046745
     17 H6         -2.9750    1.3780    4.0120 hc        1 MOL      0.010398
     18 H7         -1.8870    0.0700    3.4630 hc        1 MOL      0.010398
     19 N2         -1.1030    4.0350    1.3180 n         1 MOL     -0.388773
     20 C7         -1.3290    5.4450    0.9000 c3        1 MOL      0.000009
     21 C8         -2.4440    5.5680   -0.2320 c         1 MOL      0.438425
     22 O5         -2.6480    6.7030   -0.6520 o         1 MOL     -0.573577
     23 C9          0.0030    6.1150    0.4150 c3        1 MOL     -0.287970
     24 C10         0.5410    5.7700   -0.9550 c3        1 MOL      0.176579
     25 C11         2.0340    6.1810   -1.1830 c3        1 MOL     -0.139217
     26 C12         2.2590    5.9010   -2.6350 c3        1 MOL      0.221721
     27 N3          3.3210    6.7010   -3.1490 n4        1 MOL     -0.443442
     28 H8         -0.1690    3.7200    1.0570 hn        1 MOL      0.351995
     29 H9         -1.6810    6.0400    1.7410 h1        1 MOL      0.114762
     30 H10         0.8040    5.8450    1.1160 hc        1 MOL      0.097716
     31 H11        -0.1450    7.1880    0.3440 hc        1 MOL      0.097716
     32 H12        -0.0910    6.1560   -1.7530 hc        1 MOL     -0.015231
     33 H13         0.5600    4.6940   -1.1060 hc        1 MOL     -0.015231
     34 H14         2.7040    5.5140   -0.6280 hc        1 MOL      0.044132
     35 H15         2.1580    7.2240   -0.9110 hc        1 MOL      0.044132
     36 H16         1.3730    6.1510   -3.2220 hx        1 MOL      0.040050
     37 H17         2.4140    4.8420   -2.8410 hx        1 MOL      0.040050
     38 H18         3.2960    6.7140   -4.1580 hn        1 MOL      0.341141
     39 H19         3.2340    7.6780   -2.8950 hn        1 MOL      0.341141
     40 H20         4.1790    6.3850   -2.7230 hn        1 MOL      0.341141
     41 N4         -2.9730    4.4960   -0.7100 n         1 MOL     -0.090999
     42 C13        -4.1470    4.3270   -1.5230 c3        1 MOL      0.008020
     43 C14        -5.3270    3.5460   -0.8500 c         1 MOL      0.422032
     44 O6         -6.3900    3.3620   -1.4730 o         1 MOL     -0.551314
     45 C15        -3.8430    3.7560   -2.9670 c3        1 MOL     -0.203121
     46 C16        -3.1140    2.4230   -3.0090 c         1 MOL      0.693006
     47 O7         -2.8560    1.8400   -4.1050 o         1 MOL     -0.688179
     48 O8         -2.8040    1.9050   -1.8970 o         1 MOL     -0.688179
     49 H21        -2.5590    3.6960   -0.2590 hn        1 MOL      0.087545
     50 H22        -4.5920    5.3100   -1.6730 h1        1 MOL      0.092865
     51 H23        -3.1640    4.4090   -3.5280 hc        1 MOL      0.063454
     52 H24        -4.7630    3.6210   -3.5330 hc        1 MOL      0.063454
     53 N5         -5.1450    3.0220    0.3550 n         1 MOL     -0.067381
     54 C17        -6.1450    2.2970    1.1890 c3        1 MOL     -0.160669
     55 C18        -6.5640    0.9780    0.5760 c         1 MOL      0.612599
     56 O9         -7.6000    0.4510    0.9350 o         1 MOL     -0.604631
     57 H25        -4.1900    3.0330    0.7100 hn        1 MOL     -0.055279
     58 H26        -6.9700    2.9870    1.3560 h1        1 MOL      0.115472
     59 H27        -5.6690    2.2040    2.1680 h1        1 MOL      0.115472
     60 N6         -5.8800    0.4060   -0.4270 n         1 MOL     -0.347347
     61 C19        -6.3710   -0.7650   -1.1160 c3        1 MOL      0.063604
     62 C20        -6.3320   -2.1360   -0.3650 c         1 MOL      0.370852
     63 O10        -6.7270   -3.2010   -0.8700 o         1 MOL     -0.542061
     64 C21        -5.6510   -0.7730   -2.5230 c3        1 MOL     -0.618775
     65 C22        -4.3150   -1.5020   -2.5230 c         1 MOL      0.901262
     66 N7         -4.1710   -2.6180   -3.1990 n         1 MOL     -0.839916
     67 O11        -3.4230   -1.1240   -1.7500 o         1 MOL     -0.735897
     68 H28        -4.9950    0.8230   -0.6830 hn        1 MOL      0.291032
     69 H29        -7.4330   -0.6120   -1.3270 h1        1 MOL      0.134805
     70 H30        -5.5210    0.2580   -2.8540 hc        1 MOL      0.195756
     71 H31        -6.3700   -1.2380   -3.1830 hc        1 MOL      0.195756
     72 H32        -4.9170   -2.9460   -3.7940 hn        1 MOL      0.384176
     73 H33        -3.4130   -3.2280   -2.9160 hn        1 MOL      0.384176
     74 N8         -5.9240   -2.0580    0.9070 n         1 MOL     -0.134042
     75 C23        -5.9440   -3.1020    1.9730 c3        1 MOL     -0.154302
     76 C24        -4.5060   -3.6500    2.2990 c         1 MOL      0.455608
     77 O12        -4.3640   -4.3820    3.3150 o         1 MOL     -0.556436
     78 H34        -5.4850   -1.2080    1.2400 hn        1 MOL      0.251413
     79 H35        -6.4540   -3.9770    1.5670 h1        1 MOL      0.105199
     80 H36        -6.4340   -2.8090    2.8910 h1        1 MOL      0.105199
     81 N9         -3.5000   -3.2340    1.5320 n         1 MOL     -0.078439
     82 C25        -2.1120   -3.6840    1.8500 c3        1 MOL     -0.029239
     83 C26        -0.9340   -2.7610    1.6820 c         1 MOL      0.668148
     84 O13        -1.0920   -1.7150    1.0010 o         1 MOL     -0.688506
     85 C27        -1.8720   -5.0680    1.1700 c3        1 MOL     -0.243866
     86 C28        -1.9900   -5.0410   -0.3750 ca        1 MOL      0.089339
     87 C29        -0.7840   -4.9430   -1.1110 ca        1 MOL     -0.146037
     88 C30        -3.2100   -5.3320   -1.0590 ca        1 MOL     -0.146037
     89 C31        -0.8550   -5.0560   -2.5360 ca        1 MOL     -0.248193
     90 C32        -3.2410   -5.5530   -2.4590 ca        1 MOL     -0.248193
     91 C33        -2.0380   -5.3970   -3.1710 ca        1 MOL      0.256577
     92 O14        -2.0880   -5.4290   -4.5160 oh        1 MOL     -0.449516
     93 H37        -3.6850   -2.8230    0.6280 hn        1 MOL      0.150747
     94 H38        -2.1370   -3.8370    2.9370 h1        1 MOL      0.063324
     95 H39        -2.7030   -5.6200    1.6050 hc        1 MOL      0.093585
     96 H40        -0.9350   -5.5030    1.5120 hc        1 MOL      0.093585
     97 H41         0.1880   -4.8620   -0.6490 ha        1 MOL      0.143968
     98 H42        -4.1350   -5.4300   -0.5110 ha        1 MOL      0.143968
     99 H43         0.0430   -4.9440   -3.1240 ha        1 MOL      0.166377
    100 H44        -4.2050   -5.7710   -2.9120 ha        1 MOL      0.166377
    101 H45        -1.2700   -5.0070   -4.7670 ho        1 MOL      0.325650
    102 N10         0.1410   -3.0220    2.3490 n         1 MOL     -0.590311
    103 C34         1.4560   -2.3600    2.1740 c3        1 MOL      0.073978
    104 C35         2.1280   -3.1850    1.0110 c         1 MOL      0.402256
    105 O15         2.1960   -4.4070    1.1200 o         1 MOL     -0.550110
    106 C36         2.2720   -2.3660    3.4650 c3        1 MOL      0.151326
    107 C37         1.3690   -2.1310    4.7080 c3        1 MOL      0.245984
    108 C38         3.4550   -1.3440    3.2840 c3        1 MOL     -0.420954
    109 C39         1.9600   -2.3230    6.1040 c3        1 MOL     -0.232662
    110 H46         0.1410   -3.7500    3.0480 hn        1 MOL      0.342984
    111 H47         1.2870   -1.3480    1.8150 h1        1 MOL      0.119843
    112 H48         2.6390   -3.3750    3.6610 hc        1 MOL     -0.018116
    113 H49         0.5790   -2.8870    4.6920 hc        1 MOL     -0.055112
    114 H50         0.9330   -1.1340    4.6840 hc        1 MOL     -0.055112
    115 H51         3.0850   -0.3570    2.9910 hc        1 MOL      0.086026
    116 H52         3.9040   -1.2240    4.2730 hc        1 MOL      0.086026
    117 H53         4.1500   -1.6980    2.5350 hc        1 MOL      0.086026
    118 H54         1.1400   -2.1510    6.8070 hc        1 MOL      0.052529
    119 H55         2.2370   -3.3390    6.3750 hc        1 MOL      0.052529
    120 H56         2.7350   -1.5820    6.2970 hc        1 MOL      0.052529
    121 N11         2.5870   -2.5000   -0.0270 n         1 MOL     -0.046644
    122 C40         3.6210   -3.1450   -0.9150 c3        1 MOL      0.001028
    123 C41         5.0120   -2.6350   -0.5690 c         1 MOL      0.200379
    124 O16         5.0840   -1.6860    0.2350 o         1 MOL     -0.304658
    125 C42         3.3240   -2.8980   -2.3560 c3        1 MOL      0.275092
    126 O17         2.2080   -3.7650   -2.4850 oh        1 MOL     -0.699184
    127 H57         2.3920   -1.5080   -0.1150 hn        1 MOL      0.228099
    128 H58         3.5490   -4.2290   -0.8070 h1        1 MOL      0.088509
    129 H59         4.0490   -3.1090   -3.1500 h1        1 MOL      0.017732
    130 H60         2.9870   -1.8800   -2.5130 h1        1 MOL      0.017732
    131 H61         2.5850   -4.5920   -2.7990 ho        1 MOL      0.404049
    132 N12         6.1120   -3.1660   -1.1090 n         1 MOL     -0.290003
    133 C43         7.4960   -2.8450   -0.7550 c3        1 MOL      0.131979
    134 C44         7.8610   -1.3570   -1.1430 c         1 MOL      0.335234
    135 O18         8.6490   -0.7790   -0.3750 o         1 MOL     -0.487730
    136 C45         8.4550   -3.8930   -1.4700 c3        1 MOL     -0.427315
    137 H62         5.9650   -3.9140   -1.7720 hn        1 MOL      0.228325
    138 H63         7.5410   -2.9460    0.3280 h1        1 MOL      0.107973
    139 H64         8.3210   -4.8450   -0.9540 hc        1 MOL      0.138208
    140 H65         8.3530   -3.9500   -2.5590 hc        1 MOL      0.138208
    141 H66         9.5130   -3.6850   -1.3160 hc        1 MOL      0.138208
    142 N13         7.2910   -0.7040   -2.1940 n         1 MOL     -0.192593
    143 C46         7.3700    0.7160   -2.5540 c3        1 MOL      0.066867
    144 C47         6.8740    1.6040   -1.4000 c         1 MOL      0.312541
    145 O19         7.2300    2.7870   -1.2530 o         1 MOL     -0.527666
    146 C48         6.7930    0.9320   -3.9060 c3        1 MOL     -0.233260
    147 H67         6.7670   -1.2890   -2.8400 hn        1 MOL      0.147272
    148 H68         8.4160    0.9320   -2.7680 h1        1 MOL      0.096711
    149 H69         5.7230    0.7460   -4.0410 hc        1 MOL      0.076996
    150 H70         6.9980    1.9440   -4.2590 hc        1 MOL      0.076996
    151 H71         7.4590    0.3370   -4.5290 hc        1 MOL      0.076996
    152 N14         5.9750    1.0920   -0.5970 n         1 MOL      0.060923
    153 C49         5.2290    1.8930    0.3640 c3        1 MOL     -0.265555
    154 C50         5.8750    1.8170    1.6940 c         1 MOL      0.559977
    155 O20         5.9000    2.8080    2.4560 o         1 MOL     -0.567169
    156 C51         3.7690    1.4320    0.5200 c3        1 MOL      0.100637
    157 C52         2.8740    1.8500   -0.6180 c3        1 MOL     -0.122483
    158 C53         1.4410    1.3230   -0.4430 c         1 MOL      0.683480
    159 O21         0.4140    2.0380   -0.5920 o         1 MOL     -0.763899
    160 O22         1.3400    0.1010   -0.2100 o         1 MOL     -0.763899
    161 H72         5.6720    0.1670   -0.8600 hn        1 MOL      0.028349
    162 H73         5.1570    2.9260    0.0240 h1        1 MOL      0.106434
    163 H74         3.4340    1.7630    1.5030 hc        1 MOL      0.038944
    164 H75         3.6620    0.3650    0.6650 hc        1 MOL      0.038944
    165 H76         3.1810    1.4160   -1.5710 hc        1 MOL      0.020004
    166 H77         2.8720    2.9130   -0.8410 hc        1 MOL      0.020004
    167 N15         6.3200    0.6360    2.0670 n         1 MOL     -0.199619
    168 C54         7.1380    0.4270    3.2950 c3        1 MOL     -0.160314
    169 H78         8.1960    0.4140    3.0290 h1        1 MOL      0.084525
    170 H79         6.9520    1.2390    3.9990 h1        1 MOL      0.084525
    171 H80         6.8680   -0.5230    3.7560 h1        1 MOL      0.084525
    172 H81         6.3070   -0.1450    1.4260 hn        1 MOL      0.165532
    173 Ca1        -1.3060    0.0370   -0.8400 Ca        1 MOL      1.749034
    174 O23         0.1000   -1.9660   -2.0890 oh        1 MOL     -0.816478
    175 H82         0.9060   -2.4820   -2.1320 ho        1 MOL      0.378266
    176 H83        -0.4110   -2.2630   -2.8530 ho        1 MOL      0.378266
    177 O24        -0.8280    0.3020   -3.4540 oh        1 MOL     -0.816478
    178 H84        -0.0800    0.3770   -4.0410 ho        1 MOL      0.378266
    179 H85        -1.4380    0.9710   -3.7630 ho        1 MOL      0.378266
@<TRIPOS>BOND
     1    1    2 1   
     2    1    4 1   
     3    1    5 1   
     4    1    6 1   
     5    2    3 2   
     6    2    7 1   
     7    7    8 1   
     8    7   15 1   
     9    8    9 1   
    10    8   11 1   
    11    8   16 1   
    12    9   10 2   
    13    9   19 1   
    14   11   12 1   
    15   11   17 1   
    16   11   18 1   
    17   12   13 1   
    18   12   14 1   
    19   19   20 1   
    20   19   28 1   
    21   20   21 1   
    22   20   23 1   
    23   20   29 1   
    24   21   22 2   
    25   21   41 1   
    26   23   24 1   
    27   23   30 1   
    28   23   31 1   
    29   24   25 1   
    30   24   32 1   
    31   24   33 1   
    32   25   26 1   
    33   25   34 1   
    34   25   35 1   
    35   26   27 1   
    36   26   36 1   
    37   26   37 1   
    38   27   38 1   
    39   27   39 1   
    40   27   40 1   
    41   41   42 1   
    42   41   49 1   
    43   42   43 1   
    44   42   45 1   
    45   42   50 1   
    46   43   44 2   
    47   43   53 1   
    48   45   46 1   
    49   45   51 1   
    50   45   52 1   
    51   46   47 1   
    52   46   48 1   
    53   53   54 1   
    54   53   57 1   
    55   54   55 1   
    56   54   58 1   
    57   54   59 1   
    58   55   56 2   
    59   55   60 1   
    60   60   61 1   
    61   60   68 1   
    62   61   62 1   
    63   61   64 1   
    64   61   69 1   
    65   62   63 2   
    66   62   74 1   
    67   64   65 1   
    68   64   70 1   
    69   64   71 1   
    70   65   66 1   
    71   65   67 2   
    72   66   72 1   
    73   66   73 1   
    74   74   75 1   
    75   74   78 1   
    76   75   76 1   
    77   75   79 1   
    78   75   80 1   
    79   76   77 2   
    80   76   81 1   
    81   81   82 1   
    82   81   93 1   
    83   82   83 1   
    84   82   85 1   
    85   82   94 1   
    86   83   84 2   
    87   83  102 1   
    88   85   86 1   
    89   85   95 1   
    90   85   96 1   
    91   86   87 ar  
    92   86   88 ar  
    93   87   89 ar  
    94   87   97 1   
    95   88   90 ar  
    96   88   98 1   
    97   89   91 ar  
    98   89   99 1   
    99   90   91 ar  
   100   90  100 1   
   101   91   92 1   
   102   92  101 1   
   103  102  103 1   
   104  102  110 1   
   105  103  104 1   
   106  103  106 1   
   107  103  111 1   
   108  104  105 2   
   109  104  121 1   
   110  106  107 1   
   111  106  108 1   
   112  106  112 1   
   113  107  109 1   
   114  107  113 1   
   115  107  114 1   
   116  108  115 1   
   117  108  116 1   
   118  108  117 1   
   119  109  118 1   
   120  109  119 1   
   121  109  120 1   
   122  121  122 1   
   123  121  127 1   
   124  122  123 1   
   125  122  125 1   
   126  122  128 1   
   127  123  124 2   
   128  123  132 1   
   129  125  126 1   
   130  125  129 1   
   131  125  130 1   
   132  126  131 1   
   133  132  133 1   
   134  132  137 1   
   135  133  134 1   
   136  133  136 1   
   137  133  138 1   
   138  134  135 2   
   139  134  142 1   
   140  136  139 1   
   141  136  140 1   
   142  136  141 1   
   143  142  143 1   
   144  142  147 1   
   145  143  144 1   
   146  143  146 1   
   147  143  148 1   
   148  144  145 2   
   149  144  152 1   
   150  146  149 1   
   151  146  150 1   
   152  146  151 1   
   153  152  153 1   
   154  152  161 1   
   155  153  154 1   
   156  153  156 1   
   157  153  162 1   
   158  154  155 2   
   159  154  167 1   
   160  156  157 1   
   161  156  163 1   
   162  156  164 1   
   163  157  158 1   
   164  157  165 1   
   165  157  166 1   
   166  158  159 1   
   167  158  160 1   
   168  167  168 1   
   169  167  172 1   
   170  168  169 1   
   171  168  170 1   
   172  168  171 1   
   173  174  175 1   
   174  174  176 1   
   175  177  178 1   
   176  177  179 1   
@<TRIPOS>SUBSTRUCTURE
     1 MOL         1 TEMP              0 ****  ****    0 ROOT
