@<TRIPOS>MOLECULE
MOL
  186   183     1     0     0
SMALL
resp


@<TRIPOS>ATOM
      1 C1          0.6690   -1.6970    6.4440 c3        1 MOL     -0.371059
      2 C2          1.0200   -1.7850    4.9160 c         1 MOL      0.833932
      3 O1          0.2390   -2.2480    4.0560 o         1 MOL     -0.664949
      4 H1          0.1100   -2.5840    6.7400 hc        1 MOL      0.087904
      5 H2          1.5890   -1.6370    7.0250 hc        1 MOL      0.087904
      6 H3          0.0640   -0.8080    6.6280 hc        1 MOL      0.087904
      7 N1          2.1570   -1.2400    4.5120 n         1 MOL     -0.758811
      8 C3          2.5630   -1.2580    3.0860 c3        1 MOL      0.336274
      9 C4          2.8420   -2.6800    2.6810 c         1 MOL      0.501651
     10 O2          3.5860   -3.4330    3.3460 o         1 MOL     -0.573172
     11 C5          3.7970   -0.4010    2.9210 c3        1 MOL     -0.193799
     12 C6          4.4830   -0.5030    1.4950 c         1 MOL      0.585380
     13 O3          5.7750   -0.4440    1.5230 o         1 MOL     -0.606232
     14 O4          3.7870   -0.5460    0.4370 o         1 MOL     -0.606232
     15 H4          2.8340   -0.9010    5.1810 hn        1 MOL      0.352931
     16 H5          1.7930   -1.0020    2.3600 h1        1 MOL     -0.005487
     17 H6          4.5230   -0.7280    3.6670 hc        1 MOL      0.027589
     18 H7          3.5640    0.6600    3.0460 hc        1 MOL      0.027589
     19 N2          2.1640   -3.1570    1.6150 n         1 MOL     -0.302042
     20 C7          2.3320   -4.5950    1.1910 c3        1 MOL     -0.113261
     21 C8          3.4230   -4.9180    0.2360 c         1 MOL      0.546967
     22 O5          3.9980   -6.0070    0.2920 o         1 MOL     -0.594506
     23 C9          0.9840   -5.2100    0.7130 c3        1 MOL      0.287020
     24 C10        -0.1810   -4.9640    1.6890 c3        1 MOL      0.161230
     25 C11         1.0690   -6.7160    0.6060 c3        1 MOL     -0.273304
     26 C12        -1.6320   -5.3370    1.1540 c3        1 MOL     -0.254820
     27 H8          1.4960   -2.6600    1.0450 hn        1 MOL      0.188953
     28 H9          2.6020   -5.1380    2.1030 h1        1 MOL      0.076906
     29 H10         0.7700   -4.7680   -0.2680 hc        1 MOL     -0.028249
     30 H11        -0.2360   -3.9160    1.9830 hc        1 MOL     -0.028814
     31 H12        -0.0220   -5.5390    2.5960 hc        1 MOL     -0.028814
     32 H13         1.3880   -7.1670    1.5490 hc        1 MOL      0.043735
     33 H14         0.0810   -7.0820    0.3360 hc        1 MOL      0.043735
     34 H15         1.7140   -6.9860   -0.2280 hc        1 MOL      0.043735
     35 H16        -1.6750   -6.4230    1.2040 hc        1 MOL      0.052546
     36 H17        -2.3180   -4.7790    1.7880 hc        1 MOL      0.052546
     37 H18        -1.7790   -5.0820    0.1010 hc        1 MOL      0.052546
     38 N3          3.8140   -4.0330   -0.6880 n         1 MOL     -0.299206
     39 C13         4.7080   -4.2900   -1.8060 c3        1 MOL      0.046688
     40 C14         6.0650   -3.6570   -1.6620 c         1 MOL      0.430972
     41 O6          6.9490   -3.8750   -2.4840 o         1 MOL     -0.531753
     42 C15         4.1410   -4.0170   -3.2090 c3        1 MOL     -0.160578
     43 C16         3.4030   -2.7240   -3.3870 c         1 MOL      0.792545
     44 O7          2.5470   -2.7050   -4.3260 o         1 MOL     -0.744903
     45 O8          3.4870   -1.7190   -2.6620 o         1 MOL     -0.744903
     46 H19         3.3680   -3.1310   -0.6790 hn        1 MOL      0.167579
     47 H20         5.0510   -5.3230   -1.8150 h1        1 MOL      0.076153
     48 H21         3.4190   -4.8050   -3.4260 hc        1 MOL      0.043406
     49 H22         4.9220   -4.2400   -3.9270 hc        1 MOL      0.043406
     50 N4          6.2980   -2.8790   -0.5840 n         1 MOL     -0.240115
     51 C17         7.6120   -2.3910   -0.1710 c3        1 MOL     -0.131019
     52 C18         8.0350   -1.1810   -0.9100 c         1 MOL      0.523144
     53 O9          9.2260   -1.2020   -1.3110 o         1 MOL     -0.598464
     54 H23         5.5830   -2.7260    0.1070 hn        1 MOL      0.224759
     55 H24         8.2780   -3.2300   -0.3380 h1        1 MOL      0.089262
     56 H25         7.6370   -2.2170    0.9120 h1        1 MOL      0.089262
     57 N5          7.1960   -0.1250   -1.1560 n         1 MOL     -0.208286
     58 C19         7.5870    1.1670   -1.6510 c3        1 MOL      0.158778
     59 C20         7.6670    2.1910   -0.4390 c         1 MOL      0.364080
     60 O10         8.0760    3.2860   -0.6820 o         1 MOL     -0.570949
     61 C21         6.5740    1.6770   -2.7470 c3        1 MOL     -0.283155
     62 C22         5.0820    1.4580   -2.3720 c         1 MOL      0.811782
     63 O11         4.7080    1.6720   -1.2190 o         1 MOL     -0.762776
     64 O12         4.2050    1.2190   -3.2480 o         1 MOL     -0.762776
     65 H26         6.2780   -0.2510   -0.7540 hn        1 MOL      0.075001
     66 H27         8.6110    1.1570   -2.0330 h1        1 MOL      0.044477
     67 H28         6.8010    1.1050   -3.6400 hc        1 MOL      0.061880
     68 H29         6.8170    2.7190   -2.9430 hc        1 MOL      0.061880
     69 N6          7.0620    1.8510    0.6740 n         1 MOL     -0.128810
     70 C23         6.9070    2.5840    1.8560 c3        1 MOL     -0.038647
     71 C24         5.6430    3.4580    1.9370 c         1 MOL      0.456786
     72 O13         5.6670    4.3840    2.7660 o         1 MOL     -0.582763
     73 H30         6.6110    0.9600    0.5920 hn        1 MOL      0.063064
     74 H31         7.7790    3.2040    2.0430 h1        1 MOL      0.063934
     75 H32         6.9080    1.9370    2.7340 h1        1 MOL      0.063934
     76 N7          4.5810    3.2060    1.1000 n         1 MOL     -0.279770
     77 C25         3.3420    3.9730    0.9960 c3        1 MOL     -0.039898
     78 C26         2.1310    3.0420    1.0140 c         1 MOL      0.581591
     79 O14         2.1750    1.9090    0.4360 o         1 MOL     -0.671557
     80 C27         3.3420    4.8510   -0.2930 c3        1 MOL     -0.017943
     81 C28         4.2880    6.0900   -0.0940 c3        1 MOL     -0.422158
     82 C29         3.9670    7.0770   -1.2100 c         1 MOL      0.625398
     83 N8          4.3420    6.9480   -2.4360 n         1 MOL     -0.713437
     84 O15         3.2700    8.1060   -1.0770 o         1 MOL     -0.592352
     85 H33         4.6970    2.4930    0.4000 hn        1 MOL      0.382989
     86 H34         3.1730    4.5910    1.8800 h1        1 MOL      0.064641
     87 H35         2.3270    5.1340   -0.5450 hc        1 MOL      0.087956
     88 H36         3.8290    4.3060   -1.0980 hc        1 MOL      0.087956
     89 H37         5.3220    5.7580   -0.1570 hc        1 MOL      0.142297
     90 H38         4.0560    6.5950    0.8440 hc        1 MOL      0.142297
     91 H39         5.0890    6.2780   -2.5440 hn        1 MOL      0.342570
     92 H40         4.2150    7.7570   -3.0130 hn        1 MOL      0.342570
     93 N9          1.0350    3.4920    1.6990 n         1 MOL     -0.455300
     94 C30        -0.1820    2.7360    1.8300 c3        1 MOL      0.033251
     95 C31        -1.3210    3.2070    0.8650 c         1 MOL      0.389565
     96 O16        -1.7860    4.3210    0.9540 o         1 MOL     -0.562329
     97 C32        -0.7050    2.6890    3.3040 c3        1 MOL      0.377172
     98 C33        -1.7700    1.6140    3.4710 c3        1 MOL     -0.350270
     99 C34         0.3200    2.2510    4.2730 c3        1 MOL     -0.350270
    100 H41         1.0860    4.4150    2.1090 hn        1 MOL      0.270065
    101 H42         0.0560    1.6890    1.6680 h1        1 MOL      0.180558
    102 H43        -1.0520    3.6660    3.6520 hc        1 MOL     -0.071435
    103 H44        -1.9680    1.5010    4.5350 hc        1 MOL      0.068026
    104 H45        -2.6470    1.9400    2.9010 hc        1 MOL      0.068026
    105 H46        -1.3320    0.7220    3.0160 hc        1 MOL      0.068026
    106 H47         1.2090    2.8730    4.1690 hc        1 MOL      0.068026
    107 H48        -0.0560    2.4500    5.2800 hc        1 MOL      0.068026
    108 H49         0.4710    1.1920    4.0610 hc        1 MOL      0.068026
    109 N10        -1.8140    2.3240   -0.0210 n         1 MOL     -0.106868
    110 C35        -3.1010    2.4260   -0.7840 c3        1 MOL      0.029494
    111 C36        -4.3370    2.0250    0.0310 c         1 MOL      0.405066
    112 O17        -4.2650    1.4270    1.1110 o         1 MOL     -0.278184
    113 C37        -2.8850    1.5550   -2.0280 c3        1 MOL     -0.341538
    114 C38        -3.8640    1.5920   -3.2550 c         1 MOL      0.690491
    115 N11        -3.6630    0.7670   -4.2890 n         1 MOL     -0.803782
    116 O18        -4.8140    2.3310   -3.2880 o         1 MOL     -0.583974
    117 H50        -1.2960    1.4620   -0.1530 hn        1 MOL      0.040293
    118 H51        -3.1940    3.4530   -1.1630 h1        1 MOL      0.072861
    119 H52        -2.7710    0.5200   -1.7070 hc        1 MOL      0.126797
    120 H53        -1.9260    1.8310   -2.4640 hc        1 MOL      0.126797
    121 H54        -3.0160   -0.0020   -4.2660 hn        1 MOL      0.378755
    122 H55        -4.3680    0.8180   -5.0060 hn        1 MOL      0.378755
    123 N12        -5.5250    2.4810   -0.5010 n         1 MOL     -0.545601
    124 C39        -6.7900    2.0670    0.0730 c3        1 MOL      0.098124
    125 C40        -6.8700    0.5300    0.0870 c         1 MOL      0.772132
    126 O19        -7.1540   -0.0260    1.0770 o         1 MOL     -0.519647
    127 C41        -7.9460    2.8390   -0.5980 c3        1 MOL     -0.066274
    128 C42        -9.2110    2.3450   -0.0620 ca        1 MOL      0.006877
    129 C43        -9.5800    2.3580    1.3310 ca        1 MOL     -0.210462
    130 C44       -10.0690    1.7340   -1.0110 ca        1 MOL     -0.210462
    131 C45       -10.7130    1.5740    1.7180 ca        1 MOL     -0.214266
    132 C46       -11.2860    1.0930   -0.5560 ca        1 MOL     -0.214266
    133 C47       -11.5740    0.9960    0.8060 ca        1 MOL      0.311171
    134 O20       -12.6800    0.3950    1.2750 oh        1 MOL     -0.481981
    135 H56        -5.3990    3.1050   -1.2830 hn        1 MOL      0.307240
    136 H57        -6.8310    2.3960    1.1100 h1        1 MOL      0.058575
    137 H58        -7.7930    2.7310   -1.6730 hc        1 MOL      0.056061
    138 H59        -7.9150    3.9330   -0.4830 hc        1 MOL      0.056061
    139 H60        -8.8560    2.6780    2.0600 ha        1 MOL      0.151957
    140 H61        -9.9150    1.7330   -2.0850 ha        1 MOL      0.151957
    141 H62       -10.9610    1.4590    2.7670 ha        1 MOL      0.132381
    142 H63       -12.0100    0.7500   -1.2770 ha        1 MOL      0.132381
    143 H64       -13.1100   -0.0080    0.5200 ho        1 MOL      0.350434
    144 N13        -6.4460   -0.1970   -1.0030 n         1 MOL     -0.802012
    145 C48        -6.3450   -1.6870   -1.0700 c3        1 MOL      0.245575
    146 C49        -5.2880   -2.2630   -0.1110 c         1 MOL      0.247787
    147 O21        -5.2200   -3.5100   -0.0200 o         1 MOL     -0.556836
    148 C50        -6.1950   -2.1860   -2.5210 c3        1 MOL      0.150632
    149 C51        -7.3530   -1.7540   -3.4150 c3        1 MOL     -0.198879
    150 C52        -7.1450   -2.3460   -4.7950 c         1 MOL      0.760674
    151 O22        -6.0630   -2.1700   -5.4130 o         1 MOL     -0.743235
    152 O23        -8.0180   -2.9730   -5.3870 o         1 MOL     -0.743235
    153 H65        -6.2800    0.3420   -1.8420 hn        1 MOL      0.439832
    154 H66        -7.2440   -2.1430   -0.6450 h1        1 MOL      0.059495
    155 H67        -6.1330   -3.2710   -2.5310 hc        1 MOL     -0.029626
    156 H68        -5.3370   -1.6350   -2.9110 hc        1 MOL     -0.029626
    157 H69        -7.2890   -0.6600   -3.4560 hc        1 MOL     -0.027109
    158 H70        -8.2710   -2.1780   -3.0070 hc        1 MOL     -0.027109
    159 N14        -4.4380   -1.5010    0.4810 n         1 MOL      0.041091
    160 C53        -3.4240   -1.8930    1.4750 c3        1 MOL      0.018893
    161 C54        -3.9330   -1.6250    2.9030 c         1 MOL      0.353361
    162 O24        -3.7730   -2.4240    3.8450 o         1 MOL     -0.533342
    163 C55        -2.1010   -1.2400    1.1360 c3        1 MOL     -0.115225
    164 C56        -1.4190   -1.8350   -0.1150 c3        1 MOL      0.144248
    165 C57        -0.1060   -1.0860   -0.3920 c         1 MOL      0.404134
    166 O25         0.9750   -1.6980   -0.5800 o         1 MOL     -0.601248
    167 O26        -0.0860    0.1540   -0.5370 o         1 MOL     -0.601248
    168 H71        -4.5860   -0.4980    0.4630 hn        1 MOL      0.008297
    169 H72        -3.3000   -2.9680    1.3820 h1        1 MOL      0.106701
    170 H73        -1.3960   -1.4160    1.9480 hc        1 MOL      0.109774
    171 H74        -2.1790   -0.1660    0.9960 hc        1 MOL      0.109774
    172 H75        -2.1100   -1.7950   -0.9540 hc        1 MOL     -0.044577
    173 H76        -1.2560   -2.8990    0.0230 hc        1 MOL     -0.044577
    174 N15        -4.7320   -0.5800    3.0940 n         1 MOL      0.027157
    175 C58        -5.2200   -0.1570    4.4280 c3        1 MOL     -0.340028
    176 H77        -5.7430   -0.9870    4.9030 h1        1 MOL      0.118399
    177 H78        -4.3730    0.1400    5.0470 h1        1 MOL      0.118399
    178 H79        -5.9020    0.6860    4.3160 h1        1 MOL      0.118399
    179 H80        -4.9430   -0.0410    2.2670 hn        1 MOL     -0.045953
    180 Ca1         2.3100    0.2560   -1.5550 Ca        1 MOL      1.781406
    181 O27         1.4440    2.5610   -2.9630 oh        1 MOL     -0.848018
    182 H81         1.8720    3.4050   -3.1470 ho        1 MOL      0.396777
    183 H82         0.9980    2.3420   -3.7850 ho        1 MOL      0.396777
    184 O28         1.0760   -0.6110   -3.7660 oh        1 MOL     -0.848018
    185 H83         1.7230   -1.2250   -4.1030 ho        1 MOL      0.396777
    186 H84         0.3210   -0.7310   -4.3520 ho        1 MOL      0.396777
@<TRIPOS>BOND
     1    1    2 1   
     2    1    4 1   
     3    1    5 1   
     4    1    6 1   
     5    2    3 2   
     6    2    7 1   
     7    7    8 1   
     8    7   15 1   
     9    8    9 1   
    10    8   11 1   
    11    8   16 1   
    12    9   10 2   
    13    9   19 1   
    14   11   12 1   
    15   11   17 1   
    16   11   18 1   
    17   12   13 1   
    18   12   14 1   
    19   19   20 1   
    20   19   27 1   
    21   20   21 1   
    22   20   23 1   
    23   20   28 1   
    24   21   22 2   
    25   21   38 1   
    26   23   24 1   
    27   23   25 1   
    28   23   29 1   
    29   24   26 1   
    30   24   30 1   
    31   24   31 1   
    32   25   32 1   
    33   25   33 1   
    34   25   34 1   
    35   26   35 1   
    36   26   36 1   
    37   26   37 1   
    38   38   39 1   
    39   38   46 1   
    40   39   40 1   
    41   39   42 1   
    42   39   47 1   
    43   40   41 2   
    44   40   50 1   
    45   42   43 1   
    46   42   48 1   
    47   42   49 1   
    48   43   44 1   
    49   43   45 1   
    50   50   51 1   
    51   50   54 1   
    52   51   52 1   
    53   51   55 1   
    54   51   56 1   
    55   52   53 2   
    56   52   57 1   
    57   57   58 1   
    58   57   65 1   
    59   58   59 1   
    60   58   61 1   
    61   58   66 1   
    62   59   60 2   
    63   59   69 1   
    64   61   62 1   
    65   61   67 1   
    66   61   68 1   
    67   62   63 1   
    68   62   64 1   
    69   69   70 1   
    70   69   73 1   
    71   70   71 1   
    72   70   74 1   
    73   70   75 1   
    74   71   72 2   
    75   71   76 1   
    76   76   77 1   
    77   76   85 1   
    78   77   78 1   
    79   77   80 1   
    80   77   86 1   
    81   78   79 2   
    82   78   93 1   
    83   80   81 1   
    84   80   87 1   
    85   80   88 1   
    86   81   82 1   
    87   81   89 1   
    88   81   90 1   
    89   82   83 1   
    90   82   84 2   
    91   83   91 1   
    92   83   92 1   
    93   93   94 1   
    94   93  100 1   
    95   94   95 1   
    96   94   97 1   
    97   94  101 1   
    98   95   96 2   
    99   95  109 1   
   100   97   98 1   
   101   97   99 1   
   102   97  102 1   
   103   98  103 1   
   104   98  104 1   
   105   98  105 1   
   106   99  106 1   
   107   99  107 1   
   108   99  108 1   
   109  109  110 1   
   110  109  117 1   
   111  110  111 1   
   112  110  113 1   
   113  110  118 1   
   114  111  112 2   
   115  111  123 1   
   116  113  114 1   
   117  113  119 1   
   118  113  120 1   
   119  114  115 1   
   120  114  116 2   
   121  115  121 1   
   122  115  122 1   
   123  123  124 1   
   124  123  135 1   
   125  124  125 1   
   126  124  127 1   
   127  124  136 1   
   128  125  126 2   
   129  125  144 1   
   130  127  128 1   
   131  127  137 1   
   132  127  138 1   
   133  128  129 ar  
   134  128  130 ar  
   135  129  131 ar  
   136  129  139 1   
   137  130  132 ar  
   138  130  140 1   
   139  131  133 ar  
   140  131  141 1   
   141  132  133 ar  
   142  132  142 1   
   143  133  134 1   
   144  134  143 1   
   145  144  145 1   
   146  144  153 1   
   147  145  146 1   
   148  145  148 1   
   149  145  154 1   
   150  146  147 2   
   151  146  159 1   
   152  148  149 1   
   153  148  155 1   
   154  148  156 1   
   155  149  150 1   
   156  149  157 1   
   157  149  158 1   
   158  150  151 1   
   159  150  152 1   
   160  159  160 1   
   161  159  168 1   
   162  160  161 1   
   163  160  163 1   
   164  160  169 1   
   165  161  162 2   
   166  161  174 1   
   167  163  164 1   
   168  163  170 1   
   169  163  171 1   
   170  164  165 1   
   171  164  172 1   
   172  164  173 1   
   173  165  166 1   
   174  165  167 1   
   175  174  175 1   
   176  174  179 1   
   177  175  176 1   
   178  175  177 1   
   179  175  178 1   
   180  181  182 1   
   181  181  183 1   
   182  184  185 1   
   183  184  186 1   
@<TRIPOS>SUBSTRUCTURE
     1 MOL         1 TEMP              0 ****  ****    0 ROOT
