@<TRIPOS>MOLECULE
MOL
  176   174     1     0     0
SMALL
resp


@<TRIPOS>ATOM
      1 C1         -0.7710   -2.9380    6.6700 c3        1 MOL     -0.314067
      2 C2         -0.5460   -2.7790    5.2340 c         1 MOL      0.733139
      3 O1         -1.4750   -2.5830    4.4380 o         1 MOL     -0.581859
      4 H1         -0.9980   -1.9670    7.1110 hc        1 MOL      0.087610
      5 H2         -1.6090   -3.6160    6.8350 hc        1 MOL      0.087610
      6 H3          0.1250   -3.3470    7.1360 hc        1 MOL      0.087610
      7 N1          0.7370   -2.6870    4.6780 n         1 MOL     -0.625548
      8 C3          1.0370   -2.4990    3.2630 c3        1 MOL     -0.034540
      9 C4          1.0060   -3.7870    2.4350 c         1 MOL      0.727202
     10 O2          1.6780   -4.7200    2.8320 o         1 MOL     -0.577036
     11 C5          2.2880   -1.5230    3.0390 c3        1 MOL     -0.034549
     12 C6          2.6090   -1.3320    1.5140 c         1 MOL      0.570945
     13 O3          2.3720   -2.2100    0.6150 o         1 MOL     -0.697457
     14 O4          3.1410   -0.2930    1.0580 o         1 MOL     -0.697457
     15 H4          1.5160   -2.6780    5.3280 hn        1 MOL      0.326443
     16 H5          0.2070   -1.9470    2.8060 h1        1 MOL      0.035624
     17 H6          3.1140   -1.9400    3.6210 hc        1 MOL      0.043288
     18 H7          2.1120   -0.5720    3.5330 hc        1 MOL      0.043288
     19 N2          0.2480   -3.9340    1.3360 n         1 MOL     -0.449945
     20 C7          0.0170   -5.1470    0.5250 c3        1 MOL     -0.151011
     21 C8          1.3360   -5.5950   -0.2070 c         1 MOL      0.497769
     22 O5          1.6770   -6.8080   -0.0730 o         1 MOL     -0.578196
     23 C9         -1.2640   -4.9090   -0.3490 c3        1 MOL      0.062719
     24 C10        -1.7870   -6.1120   -1.1380 c3        1 MOL     -0.402642
     25 C11        -2.8280   -5.7720   -2.2200 c3        1 MOL      0.127641
     26 C12        -3.0380   -6.7260   -3.3980 c3        1 MOL     -0.001375
     27 N3         -4.1360   -6.3830   -4.3360 n4        1 MOL     -0.245313
     28 H8         -0.2590   -3.1070    1.0610 hn        1 MOL      0.299992
     29 H9         -0.2690   -5.8690    1.2830 h1        1 MOL      0.131957
     30 H10        -0.9800   -4.1730   -1.1070 hc        1 MOL      0.082697
     31 H11        -2.0780   -4.4740    0.2300 hc        1 MOL      0.082697
     32 H12        -2.2820   -6.6960   -0.3720 hc        1 MOL      0.132230
     33 H13        -0.9620   -6.6660   -1.5720 hc        1 MOL      0.132230
     34 H14        -2.4910   -4.8510   -2.6990 hc        1 MOL      0.012427
     35 H15        -3.7800   -5.6230   -1.7180 hc        1 MOL      0.012427
     36 H16        -3.3360   -7.6650   -2.9180 hx        1 MOL      0.082409
     37 H17        -2.1210   -6.8530   -3.9660 hx        1 MOL      0.082409
     38 H18        -4.0990   -6.9810   -5.1570 hn        1 MOL      0.296067
     39 H19        -5.1110   -6.4350   -4.0700 hn        1 MOL      0.296067
     40 H20        -4.0830   -5.4480   -4.7300 hn        1 MOL      0.296067
     41 N4          2.0250   -4.7550   -0.9240 n         1 MOL     -0.244476
     42 C13         3.2700   -5.0640   -1.7170 c3        1 MOL      0.053850
     43 C14         4.5410   -4.5270   -1.0770 c         1 MOL      0.401768
     44 O6          5.6170   -4.5470   -1.6560 o         1 MOL     -0.557201
     45 C15         3.0490   -4.2420   -3.0250 c3        1 MOL     -0.313715
     46 C16         2.6550   -2.7510   -2.8170 c         1 MOL      0.834865
     47 O7          1.4590   -2.4480   -2.7000 o         1 MOL     -0.793212
     48 O8          3.4610   -1.8740   -2.4480 o         1 MOL     -0.793212
     49 H21         1.7570   -3.7920   -0.8180 hn        1 MOL      0.222775
     50 H22         3.3470   -6.1420   -1.9090 h1        1 MOL      0.118020
     51 H23         2.1630   -4.6430   -3.5260 hc        1 MOL      0.074930
     52 H24         3.8820   -4.3060   -3.7240 hc        1 MOL      0.074930
     53 N5          4.5230   -3.9500    0.0810 n         1 MOL     -0.139657
     54 C17         5.6020   -3.4500    0.8780 c3        1 MOL     -0.238212
     55 C18         6.2190   -2.1350    0.4930 c         1 MOL      0.572576
     56 O9          7.0070   -1.5920    1.2630 o         1 MOL     -0.603327
     57 H25         3.6020   -3.9090    0.5150 hn        1 MOL      0.190427
     58 H26         6.3080   -4.2730    1.0200 h1        1 MOL      0.123732
     59 H27         5.2920   -3.2760    1.9070 h1        1 MOL      0.123732
     60 N6          5.8130   -1.5170   -0.6080 n         1 MOL     -0.355834
     61 C19         6.4960   -0.3050   -1.1490 c3        1 MOL      0.049088
     62 C20         6.5890    0.8870   -0.2230 c         1 MOL      0.376890
     63 O10         7.4100    1.7260   -0.4240 o         1 MOL     -0.522619
     64 C21         5.9780    0.0490   -2.5650 c3        1 MOL     -0.316208
     65 C22         4.7330    0.9300   -2.5800 c         1 MOL      0.689204
     66 N7          4.6010    1.7780   -3.5890 n         1 MOL     -0.671927
     67 O11         3.8500    1.0120   -1.7440 o         1 MOL     -0.556108
     68 H28         5.0940   -1.9640   -1.1700 hn        1 MOL      0.315268
     69 H29         7.5310   -0.6330   -1.2020 h1        1 MOL      0.100613
     70 H30         5.6950   -0.8530   -3.0990 hc        1 MOL      0.109703
     71 H31         6.8040    0.5590   -3.0600 hc        1 MOL      0.109703
     72 H32         5.3970    1.8080   -4.2120 hn        1 MOL      0.317372
     73 H33         3.7920    2.3830   -3.6500 hn        1 MOL      0.317372
     74 N8          5.8210    0.9270    0.8250 n         1 MOL      0.028312
     75 C23         5.7740    1.9420    1.8540 c3        1 MOL     -0.241784
     76 C24         4.7290    3.0210    1.6140 c         1 MOL      0.670428
     77 O12         4.9900    4.1580    2.0480 o         1 MOL     -0.587266
     78 H34         5.1520    0.1760    0.9520 hn        1 MOL      0.194526
     79 H35         6.7350    2.4200    2.0670 h1        1 MOL      0.087011
     80 H36         5.4950    1.4660    2.7930 h1        1 MOL      0.087011
     81 N9          3.6410    2.6710    1.0920 n         1 MOL     -0.493282
     82 C25         2.6040    3.6460    0.7720 c3        1 MOL      0.234890
     83 C26         1.2810    2.8730    0.8230 c         1 MOL      0.477372
     84 O13         1.1960    1.7270    0.3270 o         1 MOL     -0.596369
     85 C27         2.7890    4.1550   -0.6790 c3        1 MOL      0.022144
     86 C28         3.7470    5.2440   -0.8240 ca        1 MOL     -0.061004
     87 C29         5.0400    4.9550   -1.3580 ca        1 MOL     -0.229275
     88 C30         3.4690    6.5040   -0.2440 ca        1 MOL     -0.229275
     89 C31         6.0330    5.9320   -1.2880 ca        1 MOL     -0.047149
     90 C32         4.4410    7.5250   -0.3560 ca        1 MOL     -0.047149
     91 C33         5.7280    7.2530   -0.9490 ca        1 MOL      0.147986
     92 O14         6.6780    8.1540   -1.1350 oh        1 MOL     -0.425539
     93 H37         3.5760    1.7140    0.7590 hn        1 MOL      0.237426
     94 H38         2.5360    4.4900    1.4640 h1        1 MOL      0.023318
     95 H39         1.8440    4.5820   -1.0310 hc        1 MOL      0.014007
     96 H40         3.1910    3.3790   -1.3270 hc        1 MOL      0.014007
     97 H41         5.1430    3.9530   -1.7510 ha        1 MOL      0.141062
     98 H42         2.5490    6.7060    0.2730 ha        1 MOL      0.141062
     99 H43         6.9030    5.6850   -1.8950 ha        1 MOL      0.079920
    100 H44         4.1130    8.5200   -0.0910 ha        1 MOL      0.079920
    101 H45         6.3980    9.0680   -1.1370 ho        1 MOL      0.354692
    102 N10         0.1550    3.4060    1.3660 n         1 MOL     -0.520601
    103 C34        -1.2170    2.8470    1.3640 c3        1 MOL      0.011539
    104 C35        -2.2530    3.7300    0.6910 c         1 MOL      0.623795
    105 O15        -2.5520    4.8480    1.0590 o         1 MOL     -0.552005
    106 C36        -1.6030    2.3900    2.8110 c3        1 MOL     -0.023345
    107 C37        -0.7490    1.1650    3.2900 c3        1 MOL      0.016245
    108 C38        -3.1500    2.2690    2.9220 c3        1 MOL     -0.143722
    109 C39        -0.9950    0.8310    4.7880 c3        1 MOL     -0.138589
    110 H46         0.2670    4.3330    1.7300 hn        1 MOL      0.304160
    111 H47        -1.1680    1.9030    0.8290 h1        1 MOL      0.135441
    112 H48        -1.3630    3.2250    3.4700 hc        1 MOL      0.037690
    113 H49         0.2890    1.4670    3.1670 hc        1 MOL      0.058788
    114 H50        -0.9640    0.2400    2.7460 hc        1 MOL      0.058788
    115 H51        -3.5460    3.2860    2.9380 hc        1 MOL      0.033229
    116 H52        -3.6410    1.7090    2.1370 hc        1 MOL      0.033229
    117 H53        -3.4330    1.9230    3.9180 hc        1 MOL      0.033229
    118 H54        -0.7410    1.6470    5.4650 hc        1 MOL      0.036368
    119 H55        -2.0210    0.4900    4.9430 hc        1 MOL      0.036368
    120 H56        -0.3970   -0.0120    5.1400 hc        1 MOL      0.036368
    121 N11        -2.8590    3.1590   -0.3600 n         1 MOL     -0.538411
    122 C40        -4.0180    3.7200   -1.1260 c3        1 MOL      0.282271
    123 C41        -5.3660    3.4120   -0.3840 c         1 MOL      0.252828
    124 O16        -5.5290    2.4690    0.4260 o         1 MOL     -0.267564
    125 C42        -4.0790    3.1580   -2.5160 c3        1 MOL     -0.214123
    126 O17        -4.4100    1.7550   -2.3910 oh        1 MOL     -0.311100
    127 H57        -2.6520    2.1930   -0.5530 hn        1 MOL      0.245877
    128 H58        -3.9030    4.7910   -1.2330 h1        1 MOL      0.048084
    129 H59        -3.1630    3.4030   -3.0590 h1        1 MOL      0.104851
    130 H60        -4.8590    3.7870   -2.9480 h1        1 MOL      0.104851
    131 H61        -3.8150    1.2510   -2.9550 ho        1 MOL      0.367010
    132 N12        -6.4780    4.0450   -0.8360 n         1 MOL     -0.366750
    133 C43        -7.8830    3.6800   -0.3860 c3        1 MOL      0.096622
    134 C44        -8.2040    2.2490   -0.7510 c         1 MOL      0.467376
    135 O18        -8.8850    1.5510    0.0550 o         1 MOL     -0.518788
    136 C45        -8.9210    4.6260   -1.0750 c3        1 MOL     -0.418874
    137 H62        -6.2540    4.8130   -1.4510 hn        1 MOL      0.264878
    138 H63        -7.8470    3.7950    0.6940 h1        1 MOL      0.114431
    139 H64        -9.8580    4.1130   -0.8410 hc        1 MOL      0.132392
    140 H65        -8.8960    5.6080   -0.6050 hc        1 MOL      0.132392
    141 H66        -8.8090    4.6800   -2.1590 hc        1 MOL      0.132392
    142 N13        -7.6850    1.7150   -1.8400 n         1 MOL     -0.361010
    143 C46        -7.8330    0.3210   -2.2180 c3        1 MOL      0.151965
    144 C47        -7.1310   -0.5700   -1.1520 c         1 MOL      0.402978
    145 O19        -7.7690   -1.5260   -0.8050 o         1 MOL     -0.505694
    146 C48        -7.4340    0.1940   -3.7070 c3        1 MOL     -0.165892
    147 H67        -7.1470    2.3200   -2.4400 hn        1 MOL      0.252123
    148 H68        -8.9030    0.0990   -2.1520 h1        1 MOL      0.069678
    149 H69        -7.4830   -0.8460   -4.0240 hc        1 MOL      0.038764
    150 H70        -8.1310    0.7700   -4.3210 hc        1 MOL      0.038764
    151 H71        -6.4320    0.6230   -3.7680 hc        1 MOL      0.038764
    152 N14        -5.8870   -0.3140   -0.7800 n         1 MOL     -0.156197
    153 C49        -5.1280   -0.9780    0.3130 c3        1 MOL     -0.069557
    154 C50        -5.8720   -0.9860    1.6170 c         1 MOL      0.370155
    155 O20        -5.8150   -1.9980    2.3520 o         1 MOL     -0.528034
    156 C51        -3.7150   -0.4630    0.3530 c3        1 MOL      0.416841
    157 C52        -2.7970   -1.2830   -0.5220 c3        1 MOL     -0.171958
    158 C53        -1.3050   -0.7850   -0.5450 c         1 MOL      0.775012
    159 O21        -0.9680    0.1320   -1.3360 o         1 MOL     -0.789266
    160 O22        -0.4600   -1.3180    0.2120 o         1 MOL     -0.789266
    161 H72        -5.5040    0.6090   -0.9190 hn        1 MOL     -0.123354
    162 H73        -5.0650   -2.0280    0.0150 h1        1 MOL      0.079420
    163 H74        -3.3370   -0.4190    1.3750 hc        1 MOL     -0.023733
    164 H75        -3.7490    0.5740    0.0160 hc        1 MOL     -0.023733
    165 H76        -3.2060   -1.1720   -1.5250 hc        1 MOL     -0.055025
    166 H77        -2.8540   -2.3120   -0.1570 hc        1 MOL     -0.055025
    167 N15        -6.5390    0.1360    1.8980 n         1 MOL      0.048189
    168 C54        -7.1450    0.4110    3.1920 c3        1 MOL     -0.404751
    169 H78        -7.1940    1.4890    3.3480 h1        1 MOL      0.138381
    170 H79        -8.1520   -0.0050    3.2190 h1        1 MOL      0.138381
    171 H80        -6.5420   -0.0420    3.9790 h1        1 MOL      0.138381
    172 H81        -6.5030    0.8980    1.2410 hn        1 MOL      0.068757
    173 Ca1         1.6500   -0.4750   -1.0950 Ca        1 MOL      1.744390
    174 O23         1.2360    1.2860   -3.0770 oh        1 MOL     -0.813530
    175 H82         0.9750    1.1670   -3.9900 ho        1 MOL      0.404886
    176 H83         0.7600    2.0630   -2.7930 ho        1 MOL      0.404886
@<TRIPOS>BOND
     1    1    2 1   
     2    1    4 1   
     3    1    5 1   
     4    1    6 1   
     5    2    3 2   
     6    2    7 1   
     7    7    8 1   
     8    7   15 1   
     9    8    9 1   
    10    8   11 1   
    11    8   16 1   
    12    9   10 2   
    13    9   19 1   
    14   11   12 1   
    15   11   17 1   
    16   11   18 1   
    17   12   13 1   
    18   12   14 1   
    19   19   20 1   
    20   19   28 1   
    21   20   21 1   
    22   20   23 1   
    23   20   29 1   
    24   21   22 2   
    25   21   41 1   
    26   23   24 1   
    27   23   30 1   
    28   23   31 1   
    29   24   25 1   
    30   24   32 1   
    31   24   33 1   
    32   25   26 1   
    33   25   34 1   
    34   25   35 1   
    35   26   27 1   
    36   26   36 1   
    37   26   37 1   
    38   27   38 1   
    39   27   39 1   
    40   27   40 1   
    41   41   42 1   
    42   41   49 1   
    43   42   43 1   
    44   42   45 1   
    45   42   50 1   
    46   43   44 2   
    47   43   53 1   
    48   45   46 1   
    49   45   51 1   
    50   45   52 1   
    51   46   47 1   
    52   46   48 1   
    53   53   54 1   
    54   53   57 1   
    55   54   55 1   
    56   54   58 1   
    57   54   59 1   
    58   55   56 2   
    59   55   60 1   
    60   60   61 1   
    61   60   68 1   
    62   61   62 1   
    63   61   64 1   
    64   61   69 1   
    65   62   63 2   
    66   62   74 1   
    67   64   65 1   
    68   64   70 1   
    69   64   71 1   
    70   65   66 1   
    71   65   67 2   
    72   66   72 1   
    73   66   73 1   
    74   74   75 1   
    75   74   78 1   
    76   75   76 1   
    77   75   79 1   
    78   75   80 1   
    79   76   77 2   
    80   76   81 1   
    81   81   82 1   
    82   81   93 1   
    83   82   83 1   
    84   82   85 1   
    85   82   94 1   
    86   83   84 2   
    87   83  102 1   
    88   85   86 1   
    89   85   95 1   
    90   85   96 1   
    91   86   87 ar  
    92   86   88 ar  
    93   87   89 ar  
    94   87   97 1   
    95   88   90 ar  
    96   88   98 1   
    97   89   91 ar  
    98   89   99 1   
    99   90   91 ar  
   100   90  100 1   
   101   91   92 1   
   102   92  101 1   
   103  102  103 1   
   104  102  110 1   
   105  103  104 1   
   106  103  106 1   
   107  103  111 1   
   108  104  105 2   
   109  104  121 1   
   110  106  107 1   
   111  106  108 1   
   112  106  112 1   
   113  107  109 1   
   114  107  113 1   
   115  107  114 1   
   116  108  115 1   
   117  108  116 1   
   118  108  117 1   
   119  109  118 1   
   120  109  119 1   
   121  109  120 1   
   122  121  122 1   
   123  121  127 1   
   124  122  123 1   
   125  122  125 1   
   126  122  128 1   
   127  123  124 2   
   128  123  132 1   
   129  125  126 1   
   130  125  129 1   
   131  125  130 1   
   132  126  131 1   
   133  132  133 1   
   134  132  137 1   
   135  133  134 1   
   136  133  136 1   
   137  133  138 1   
   138  134  135 2   
   139  134  142 1   
   140  136  139 1   
   141  136  140 1   
   142  136  141 1   
   143  142  143 1   
   144  142  147 1   
   145  143  144 1   
   146  143  146 1   
   147  143  148 1   
   148  144  145 2   
   149  144  152 1   
   150  146  149 1   
   151  146  150 1   
   152  146  151 1   
   153  152  153 1   
   154  152  161 1   
   155  153  154 1   
   156  153  156 1   
   157  153  162 1   
   158  154  155 2   
   159  154  167 1   
   160  156  157 1   
   161  156  163 1   
   162  156  164 1   
   163  157  158 1   
   164  157  165 1   
   165  157  166 1   
   166  158  159 1   
   167  158  160 1   
   168  167  168 1   
   169  167  172 1   
   170  168  169 1   
   171  168  170 1   
   172  168  171 1   
   173  174  175 1   
   174  174  176 1   
@<TRIPOS>SUBSTRUCTURE
     1 MOL         1 TEMP              0 ****  ****    0 ROOT
