@<TRIPOS>MOLECULE
MOL
  189   185     1     0     0
SMALL
resp


@<TRIPOS>ATOM
      1 C1         -0.2680    1.7680    6.3020 c3        1 MOL     -0.267621
      2 C2         -0.4920    1.7190    4.8010 c         1 MOL      0.789885
      3 O1          0.4410    2.0070    4.0990 o         1 MOL     -0.636472
      4 H1         -1.2070    2.0070    6.8000 hc        1 MOL      0.065816
      5 H2          0.0900    0.7990    6.6480 hc        1 MOL      0.065816
      6 H3          0.4720    2.5340    6.5340 hc        1 MOL      0.065816
      7 N1         -1.6800    1.3330    4.2770 n         1 MOL     -0.698326
      8 C3         -2.0830    1.3510    2.8810 c3        1 MOL      0.255776
      9 C4         -2.4550    2.8150    2.5310 c         1 MOL      0.463571
     10 O2         -3.1500    3.5420    3.2880 o         1 MOL     -0.550160
     11 C5         -3.2880    0.4700    2.7200 c3        1 MOL     -0.293764
     12 C6         -3.8620    0.4010    1.2260 c         1 MOL      0.551190
     13 O3         -3.2430    0.7710    0.1810 o         1 MOL     -0.561373
     14 O4         -5.0600    0.1480    1.1690 o         1 MOL     -0.561373
     15 H4         -2.3990    0.9770    4.8930 hn        1 MOL      0.332961
     16 H5         -1.2710    1.0630    2.2060 h1        1 MOL      0.005325
     17 H6         -4.1310    0.8920    3.2830 hc        1 MOL      0.085040
     18 H7         -3.1080   -0.4770    3.2130 hc        1 MOL      0.085040
     19 N2         -1.9890    3.2520    1.3390 n         1 MOL     -0.304925
     20 C7         -2.2850    4.5650    0.7780 c3        1 MOL      0.039361
     21 C8         -3.4930    4.6720   -0.1660 c         1 MOL      0.355041
     22 O5         -4.0430    5.7880   -0.4150 o         1 MOL     -0.561599
     23 C9         -1.0440    5.3240    0.3300 c3        1 MOL     -0.000257
     24 C10         0.0640    5.3700    1.3410 c3        1 MOL      0.029716
     25 C11         0.8750    6.6140    1.0920 c3        1 MOL     -0.090994
     26 C12         0.1050    7.9350    1.4090 c3        1 MOL      0.132875
     27 N3          0.8420    9.0830    2.0150 n4        1 MOL     -0.501155
     28 H8         -1.3970    2.6510    0.7860 hn        1 MOL      0.205689
     29 H9         -2.5630    5.1970    1.6170 h1        1 MOL      0.035418
     30 H10        -1.3780    6.3010   -0.0200 hc        1 MOL      0.019698
     31 H11        -0.7050    4.8060   -0.5620 hc        1 MOL      0.019698
     32 H12         0.6560    4.4560    1.2780 hc        1 MOL      0.041166
     33 H13        -0.4260    5.5240    2.3060 hc        1 MOL      0.041166
     34 H14         1.2730    6.6560    0.0740 hc        1 MOL      0.033694
     35 H15         1.7370    6.6020    1.7620 hc        1 MOL      0.033694
     36 H16        -0.7820    7.7080    1.9990 hx        1 MOL      0.067702
     37 H17        -0.3400    8.2600    0.4610 hx        1 MOL      0.067702
     38 H18         0.2170    9.8430    2.2530 hn        1 MOL      0.360431
     39 H19         1.2100    8.9070    2.9400 hn        1 MOL      0.360431
     40 H20         1.5690    9.4040    1.3890 hn        1 MOL      0.360431
     41 N4         -3.9110    3.5540   -0.8000 n         1 MOL     -0.065632
     42 C13        -4.8410    3.4280   -1.9190 c3        1 MOL     -0.167155
     43 C14        -6.3050    2.9410   -1.5900 c         1 MOL      0.452897
     44 O6         -7.1900    3.1330   -2.4010 o         1 MOL     -0.508719
     45 C15        -4.3430    2.2780   -2.8340 c3        1 MOL     -0.013034
     46 C16        -2.8790    2.4260   -3.2230 c         1 MOL      0.634932
     47 O7         -1.9770    1.9030   -2.5480 o         1 MOL     -0.638491
     48 O8         -2.7030    3.2640   -4.1290 o         1 MOL     -0.638491
     49 H21        -3.4070    2.7160   -0.5230 hn        1 MOL      0.175764
     50 H22        -4.8060    4.4490   -2.3100 h1        1 MOL      0.139321
     51 H23        -4.9670    2.4380   -3.7240 hc        1 MOL      0.002631
     52 H24        -4.4390    1.3530   -2.2780 hc        1 MOL      0.002631
     53 N5         -6.5130    2.2460   -0.4860 n         1 MOL     -0.302808
     54 C17        -7.6580    1.3720   -0.2270 c3        1 MOL     -0.147368
     55 C18        -7.8640    0.1530   -1.0830 c         1 MOL      0.458445
     56 O9         -9.0270   -0.3780   -1.0410 o         1 MOL     -0.554364
     57 H25        -5.6700    2.1270    0.0560 hn        1 MOL      0.202839
     58 H26        -8.5720    1.9640   -0.2960 h1        1 MOL      0.113849
     59 H27        -7.6320    1.0120    0.8000 h1        1 MOL      0.113849
     60 N6         -6.8350   -0.3510   -1.7500 n         1 MOL     -0.272406
     61 C19        -6.6940   -1.7320   -2.1130 c3        1 MOL     -0.022602
     62 C20        -6.6090   -2.7860   -0.9920 c         1 MOL      0.344934
     63 O10        -6.9170   -3.9390   -1.2050 o         1 MOL     -0.500096
     64 C21        -5.5360   -2.0160   -3.1550 c3        1 MOL     -0.393945
     65 C22        -4.1650   -1.4360   -2.5900 c         1 MOL      0.782801
     66 O11        -3.7340   -1.8120   -1.5180 o         1 MOL     -0.752206
     67 O12        -3.3420   -0.8140   -3.3100 o         1 MOL     -0.752206
     68 H28        -6.0080    0.2270   -1.6680 hn        1 MOL      0.293055
     69 H29        -7.5780   -1.9900   -2.6910 h1        1 MOL      0.124142
     70 H30        -5.8370   -1.4830   -4.0540 hc        1 MOL      0.135056
     71 H31        -5.4300   -3.0880   -3.3470 hc        1 MOL      0.135056
     72 N7         -6.3340   -2.3920    0.2830 n         1 MOL     -0.046666
     73 C23        -6.1900   -3.3060    1.4360 c3        1 MOL     -0.128688
     74 C24        -4.9980   -4.2180    1.2740 c         1 MOL      0.565394
     75 O13        -5.0410   -5.3470    1.7530 o         1 MOL     -0.552939
     76 H32        -6.2040   -1.3950    0.4300 hn        1 MOL      0.124653
     77 H33        -7.1260   -3.8580    1.5210 h1        1 MOL      0.066166
     78 H34        -5.9210   -2.7360    2.3290 h1        1 MOL      0.066166
     79 N8         -3.9520   -3.7440    0.5830 n         1 MOL     -0.218845
     80 C25        -2.6770   -4.4300    0.4560 c3        1 MOL     -0.186526
     81 C26        -1.4540   -3.5280    0.6900 c         1 MOL      0.626546
     82 O14        -1.4440   -2.2980    0.4280 o         1 MOL     -0.652664
     83 C27        -2.5300   -5.1590   -0.8510 c3        1 MOL      0.420225
     84 C28        -3.3120   -6.4410   -0.7330 c3        1 MOL     -0.331215
     85 O15        -3.0600   -4.5080   -1.9460 oh        1 MOL     -0.588053
     86 H35        -3.9570   -2.7420    0.4380 hn        1 MOL      0.210521
     87 H36        -2.5620   -5.1890    1.2320 h1        1 MOL      0.085638
     88 H37        -1.4930   -5.4680   -0.9940 h1        1 MOL     -0.029515
     89 H38        -3.4240   -3.6460   -1.7110 ho        1 MOL      0.385096
     90 H39        -3.3320   -6.8530    0.2830 hc        1 MOL      0.085099
     91 H40        -4.3480   -6.3560   -1.0500 hc        1 MOL      0.085099
     92 H41        -2.9660   -7.2530   -1.3700 hc        1 MOL      0.085099
     93 N9         -0.3560   -4.1070    1.2220 n         1 MOL     -0.588747
     94 C29         0.8410   -3.3370    1.5790 c3        1 MOL     -0.022267
     95 C30         2.0180   -3.7190    0.6830 c         1 MOL      0.678227
     96 O16         2.5240   -4.8340    0.8710 o         1 MOL     -0.568370
     97 C31         1.2290   -3.4160    3.1310 c3        1 MOL      0.034116
     98 C32        -0.0660   -3.0360    3.8530 c3        1 MOL      0.205031
     99 C33         2.4300   -2.5660    3.5910 c3        1 MOL     -0.643404
    100 C34        -0.0560   -2.9500    5.3700 c3        1 MOL     -0.326455
    101 H42        -0.3730   -5.1160    1.3220 hn        1 MOL      0.332789
    102 H43         0.6030   -2.2980    1.3890 h1        1 MOL      0.157966
    103 H44         1.4260   -4.4500    3.4170 hc        1 MOL      0.032670
    104 H45        -0.8930   -3.6630    3.5160 hc        1 MOL     -0.016378
    105 H46        -0.3490   -2.0360    3.5120 hc        1 MOL     -0.016378
    106 H47         3.2010   -2.6020    2.8330 hc        1 MOL      0.164483
    107 H48         2.1850   -1.5340    3.8390 hc        1 MOL      0.164483
    108 H49         2.8160   -2.9840    4.5270 hc        1 MOL      0.164483
    109 H50         0.7700   -2.3330    5.7400 hc        1 MOL      0.079229
    110 H51        -0.9970   -2.6120    5.8020 hc        1 MOL      0.079229
    111 H52         0.2180   -3.9080    5.7960 hc        1 MOL      0.079229
    112 N10         2.3200   -2.8010   -0.2070 n         1 MOL     -0.461686
    113 C35         3.5300   -2.7980   -0.9430 c3        1 MOL      0.049020
    114 C36         4.8380   -2.5140   -0.1680 c         1 MOL      0.243563
    115 O17         4.8140   -1.9190    0.8850 o         1 MOL     -0.133863
    116 C37         3.4840   -1.8080   -2.1300 c3        1 MOL      0.103390
    117 C38         2.3950   -2.1240   -3.1610 c3        1 MOL     -0.497832
    118 O18         3.3320   -0.4840   -1.6520 oh        1 MOL     -0.419385
    119 H53         1.8470   -1.9290   -0.0440 hn        1 MOL      0.258763
    120 H54         3.6190   -3.8330   -1.2760 h1        1 MOL      0.095607
    121 H55         4.4350   -1.8800   -2.6570 h1        1 MOL      0.069993
    122 H56         2.4170   -0.2720   -1.4740 ho        1 MOL      0.279345
    123 H57         2.3880   -3.2100   -3.1990 hc        1 MOL      0.151249
    124 H58         1.4150   -1.7760   -2.8480 hc        1 MOL      0.151249
    125 H59         2.4890   -1.7570   -4.1760 hc        1 MOL      0.151249
    126 N11         6.0360   -2.8750   -0.7250 n         1 MOL     -0.411806
    127 C39         7.3670   -2.2960   -0.3910 c3        1 MOL     -0.004877
    128 C40         7.4310   -0.8590   -0.0100 c         1 MOL      0.266627
    129 O19         8.1160   -0.5740    0.9560 o         1 MOL     -0.441823
    130 C41         8.3830   -2.4850   -1.5300 c3        1 MOL      0.260519
    131 C42         9.0370   -3.8110   -1.6480 c3        1 MOL     -0.518337
    132 O20         7.7700   -2.3490   -2.8060 oh        1 MOL     -0.645213
    133 H60         6.0840   -3.3510   -1.6150 hn        1 MOL      0.314598
    134 H61         7.7090   -2.7850    0.5230 h1        1 MOL      0.128843
    135 H62         9.1430   -1.7100   -1.4640 h1        1 MOL      0.057224
    136 H63         8.4780   -2.0560   -3.3820 ho        1 MOL      0.414064
    137 H64         8.3340   -4.4440   -2.2000 hc        1 MOL      0.150407
    138 H65         9.9330   -3.6930   -2.2460 hc        1 MOL      0.150407
    139 H66         9.3130   -4.1770   -0.6570 hc        1 MOL      0.150407
    140 N12         6.6670   -0.0210   -0.7430 n         1 MOL     -0.170550
    141 C43         6.6560    1.4210   -0.5740 c3        1 MOL      0.026499
    142 C44         5.9890    1.6290    0.7570 c         1 MOL      0.310779
    143 O21         6.5770    2.2300    1.6220 o         1 MOL     -0.498380
    144 C45         6.0590    2.1010   -1.8130 c3        1 MOL     -0.094672
    145 C46         7.0830    2.2070   -2.9230 c3        1 MOL      0.308473
    146 C47         6.2800    2.4550   -4.2390 c3        1 MOL     -0.271765
    147 C48         7.1580    2.4400   -5.5170 c3        1 MOL      0.127085
    148 N13         8.1680    3.5390   -5.5920 n4        1 MOL     -0.383376
    149 H67         6.1270   -0.3010   -1.5510 hn        1 MOL      0.184274
    150 H68         7.6600    1.8390   -0.5830 h1        1 MOL      0.071920
    151 H69         5.7340    3.1150   -1.6030 hc        1 MOL      0.007289
    152 H70         5.1550    1.6090   -2.1790 hc        1 MOL      0.007289
    153 H71         7.6930    1.3060   -2.9870 hc        1 MOL     -0.069700
    154 H72         7.8400    2.9590   -2.6830 hc        1 MOL     -0.069700
    155 H73         5.7700    3.4110   -4.2210 hc        1 MOL      0.109264
    156 H74         5.5550    1.6590   -4.4190 hc        1 MOL      0.109264
    157 H75         6.4820    2.4930   -6.3800 hx        1 MOL      0.054267
    158 H76         7.6290    1.4600   -5.6150 hx        1 MOL      0.054267
    159 H77         8.8950    3.2860   -4.9440 hn        1 MOL      0.303882
    160 H78         8.4610    3.3480   -6.5450 hn        1 MOL      0.303882
    161 H79         7.7390    4.4080   -5.3140 hn        1 MOL      0.303882
    162 N14         4.8590    0.9810    0.9520 n         1 MOL     -0.101143
    163 C49         3.9850    1.1140    2.1330 c3        1 MOL     -0.073052
    164 C50         4.5160    0.3960    3.3950 c         1 MOL      0.428554
    165 O22         4.4410    0.9300    4.4940 o         1 MOL     -0.559814
    166 C51         2.6070    0.5960    1.7320 c3        1 MOL      0.045608
    167 C52         1.8630    1.6360    0.7710 c3        1 MOL     -0.151054
    168 C53         0.7410    0.9840   -0.0720 c         1 MOL      0.815749
    169 O23         0.8610   -0.1580   -0.5510 o         1 MOL     -0.780074
    170 O24        -0.3350    1.5580   -0.1530 o         1 MOL     -0.780074
    171 H80         4.5250    0.3440    0.2480 hn        1 MOL      0.153012
    172 H81         3.9600    2.1750    2.3860 h1        1 MOL      0.087698
    173 H82         2.1280    0.5240    2.7070 hc        1 MOL      0.056358
    174 H83         2.7210   -0.3570    1.2190 hc        1 MOL      0.056358
    175 H84         2.6030    1.9520    0.0350 hc        1 MOL      0.013314
    176 H85         1.5040    2.5150    1.3140 hc        1 MOL      0.013314
    177 N15         5.2800   -0.6180    3.1690 n         1 MOL      0.023151
    178 C54         5.9500   -1.3960    4.1700 c3        1 MOL     -0.382670
    179 H86         5.2120   -1.9200    4.7770 h1        1 MOL      0.122092
    180 H87         6.6050   -2.1220    3.6890 h1        1 MOL      0.122092
    181 H88         6.5420   -0.7380    4.8070 h1        1 MOL      0.122092
    182 H89         5.2630   -0.9570    2.2160 hn        1 MOL      0.071756
    183 Ca1        -1.5480   -0.3390   -1.4890 Ca        1 MOL      1.772454
    184 O25         0.1440    0.6280   -3.7110 oh        1 MOL     -0.797954
    185 H90         1.0600    0.7620   -3.9530 ho        1 MOL      0.374744
    186 H91        -0.2740    1.4670   -3.8950 ho        1 MOL      0.374744
    187 O26        -1.0500   -2.6530   -2.8460 oh        1 MOL     -0.797954
    188 H92        -1.6290   -3.4130   -2.8230 ho        1 MOL      0.374744
    189 H93        -0.6740   -2.6650   -3.7290 ho        1 MOL      0.374744
@<TRIPOS>BOND
     1    1    2 1   
     2    1    4 1   
     3    1    5 1   
     4    1    6 1   
     5    2    3 2   
     6    2    7 1   
     7    7    8 1   
     8    7   15 1   
     9    8    9 1   
    10    8   11 1   
    11    8   16 1   
    12    9   10 2   
    13    9   19 1   
    14   11   12 1   
    15   11   17 1   
    16   11   18 1   
    17   12   13 1   
    18   12   14 1   
    19   19   20 1   
    20   19   28 1   
    21   20   21 1   
    22   20   23 1   
    23   20   29 1   
    24   21   22 2   
    25   21   41 1   
    26   23   24 1   
    27   23   30 1   
    28   23   31 1   
    29   24   25 1   
    30   24   32 1   
    31   24   33 1   
    32   25   26 1   
    33   25   34 1   
    34   25   35 1   
    35   26   27 1   
    36   26   36 1   
    37   26   37 1   
    38   27   38 1   
    39   27   39 1   
    40   27   40 1   
    41   41   42 1   
    42   41   49 1   
    43   42   43 1   
    44   42   45 1   
    45   42   50 1   
    46   43   44 2   
    47   43   53 1   
    48   45   46 1   
    49   45   51 1   
    50   45   52 1   
    51   46   47 1   
    52   46   48 1   
    53   53   54 1   
    54   53   57 1   
    55   54   55 1   
    56   54   58 1   
    57   54   59 1   
    58   55   56 2   
    59   55   60 1   
    60   60   61 1   
    61   60   68 1   
    62   61   62 1   
    63   61   64 1   
    64   61   69 1   
    65   62   63 2   
    66   62   72 1   
    67   64   65 1   
    68   64   70 1   
    69   64   71 1   
    70   65   66 1   
    71   65   67 1   
    72   72   73 1   
    73   72   76 1   
    74   73   74 1   
    75   73   77 1   
    76   73   78 1   
    77   74   75 2   
    78   74   79 1   
    79   79   80 1   
    80   79   86 1   
    81   80   81 1   
    82   80   83 1   
    83   80   87 1   
    84   81   82 2   
    85   81   93 1   
    86   83   84 1   
    87   83   85 1   
    88   83   88 1   
    89   84   90 1   
    90   84   91 1   
    91   84   92 1   
    92   85   89 1   
    93   93   94 1   
    94   93  101 1   
    95   94   95 1   
    96   94   97 1   
    97   94  102 1   
    98   95   96 2   
    99   95  112 1   
   100   97   98 1   
   101   97   99 1   
   102   97  103 1   
   103   98  100 1   
   104   98  104 1   
   105   98  105 1   
   106   99  106 1   
   107   99  107 1   
   108   99  108 1   
   109  100  109 1   
   110  100  110 1   
   111  100  111 1   
   112  112  113 1   
   113  112  119 1   
   114  113  114 1   
   115  113  116 1   
   116  113  120 1   
   117  114  115 2   
   118  114  126 1   
   119  116  117 1   
   120  116  118 1   
   121  116  121 1   
   122  117  123 1   
   123  117  124 1   
   124  117  125 1   
   125  118  122 1   
   126  126  127 1   
   127  126  133 1   
   128  127  128 1   
   129  127  130 1   
   130  127  134 1   
   131  128  129 2   
   132  128  140 1   
   133  130  131 1   
   134  130  132 1   
   135  130  135 1   
   136  131  137 1   
   137  131  138 1   
   138  131  139 1   
   139  132  136 1   
   140  140  141 1   
   141  140  149 1   
   142  141  142 1   
   143  141  144 1   
   144  141  150 1   
   145  142  143 2   
   146  142  162 1   
   147  144  145 1   
   148  144  151 1   
   149  144  152 1   
   150  145  146 1   
   151  145  153 1   
   152  145  154 1   
   153  146  147 1   
   154  146  155 1   
   155  146  156 1   
   156  147  148 1   
   157  147  157 1   
   158  147  158 1   
   159  148  159 1   
   160  148  160 1   
   161  148  161 1   
   162  162  163 1   
   163  162  171 1   
   164  163  164 1   
   165  163  166 1   
   166  163  172 1   
   167  164  165 2   
   168  164  177 1   
   169  166  167 1   
   170  166  173 1   
   171  166  174 1   
   172  167  168 1   
   173  167  175 1   
   174  167  176 1   
   175  168  169 1   
   176  168  170 1   
   177  177  178 1   
   178  177  182 1   
   179  178  179 1   
   180  178  180 1   
   181  178  181 1   
   182  184  185 1   
   183  184  186 1   
   184  187  188 1   
   185  187  189 1   
@<TRIPOS>SUBSTRUCTURE
     1 MOL         1 TEMP              0 ****  ****    0 ROOT
