@<TRIPOS>MOLECULE
MOL
  179   176     1     0     0
SMALL
resp


@<TRIPOS>ATOM
      1 C1          1.2690    4.7650    4.0880 c3        1 MOL     -0.325492
      2 C2          0.8180    3.6330    3.0970 c         1 MOL      0.744990
      3 O1          1.6100    3.1900    2.3330 o         1 MOL     -0.540182
      4 H1          1.6060    4.3170    5.0220 hc        1 MOL      0.069900
      5 H2          2.0860    5.3350    3.6440 hc        1 MOL      0.069900
      6 H3          0.4290    5.4290    4.2880 hc        1 MOL      0.069900
      7 N1         -0.4550    3.1610    3.2000 n         1 MOL     -0.629635
      8 C3         -1.3160    2.6780    2.0360 c3        1 MOL      0.087782
      9 C4         -2.0230    3.9210    1.4040 c         1 MOL      0.500997
     10 O2         -3.1710    4.1960    1.6520 o         1 MOL     -0.471073
     11 C5         -2.2860    1.6240    2.5480 c3        1 MOL     -0.299297
     12 C6         -2.9760    0.9390    1.3460 c         1 MOL      0.801219
     13 O3         -2.5360    1.1630    0.1960 o         1 MOL     -0.714932
     14 O4         -4.0280    0.3090    1.5010 o         1 MOL     -0.714932
     15 H4         -1.0220    3.4070    3.9950 hn        1 MOL      0.333791
     16 H5         -0.6630    2.3810    1.2180 h1        1 MOL      0.063915
     17 H6         -3.0480    2.1710    3.1000 hc        1 MOL      0.088958
     18 H7         -1.7070    0.8700    3.0940 hc        1 MOL      0.088958
     19 N2         -1.3260    4.7750    0.5940 n         1 MOL     -0.406423
     20 C7         -1.7950    6.0740    0.0320 c3        1 MOL     -0.026449
     21 C8         -2.8860    5.9580   -1.0730 c         1 MOL      0.447379
     22 O5         -3.6690    6.8690   -1.2810 o         1 MOL     -0.542119
     23 C9         -0.4700    6.7350   -0.5050 c3        1 MOL     -0.358350
     24 C10         0.4530    7.1130    0.6570 c3        1 MOL      0.381634
     25 C11         1.6150    8.0780    0.1680 c3        1 MOL     -0.047550
     26 C12         2.3530    8.9200    1.2470 c3        1 MOL     -0.063840
     27 N3          1.4530    9.6620    2.1450 n4        1 MOL     -0.344650
     28 H8         -0.4030    4.5060    0.2850 hn        1 MOL      0.344897
     29 H9         -2.1300    6.7580    0.8060 h1        1 MOL      0.104164
     30 H10        -0.8040    7.6760   -0.9520 hc        1 MOL      0.103526
     31 H11         0.0000    6.1050   -1.2650 hc        1 MOL      0.103526
     32 H12         0.8250    6.2070    1.1330 hc        1 MOL     -0.110158
     33 H13        -0.1080    7.5820    1.4710 hc        1 MOL     -0.110158
     34 H14         1.0980    8.7680   -0.5020 hc        1 MOL      0.047807
     35 H15         2.3070    7.5030   -0.4510 hc        1 MOL      0.047807
     36 H16         3.0570    9.5330    0.6770 hx        1 MOL      0.118443
     37 H17         2.8890    8.2420    1.9060 hx        1 MOL      0.118443
     38 H18         2.0170   10.0430    2.8920 hn        1 MOL      0.326857
     39 H19         0.9310   10.3810    1.6760 hn        1 MOL      0.326857
     40 H20         0.7510    9.0600    2.5350 hn        1 MOL      0.326857
     41 N4         -3.0110    4.7900   -1.6080 n         1 MOL     -0.109746
     42 C13        -4.0410    4.3680   -2.5450 c3        1 MOL     -0.039003
     43 C14        -5.2480    3.9400   -1.7130 c         1 MOL      0.460727
     44 O6         -6.3940    4.3390   -2.0560 o         1 MOL     -0.549101
     45 C15        -3.5240    3.3930   -3.5870 c3        1 MOL     -0.117187
     46 C16        -2.8410    2.1280   -3.1040 c         1 MOL      0.770830
     47 O7         -3.3800    1.0220   -3.0110 o         1 MOL     -0.750971
     48 O8         -1.6240    2.1090   -2.7050 o         1 MOL     -0.750971
     49 H21        -2.2480    4.1480   -1.4290 hn        1 MOL      0.104005
     50 H22        -4.3050    5.2870   -3.0650 h1        1 MOL      0.093794
     51 H23        -2.6830    3.8900   -4.0730 hc        1 MOL      0.040742
     52 H24        -4.2120    3.2800   -4.4190 hc        1 MOL      0.040742
     53 N5         -5.0370    3.1650   -0.6510 n         1 MOL      0.015529
     54 C17        -6.0630    2.5850    0.2530 c3        1 MOL     -0.298043
     55 C18        -6.6640    1.2230   -0.1210 c         1 MOL      0.613465
     56 O9         -7.8350    1.0020    0.1790 o         1 MOL     -0.582657
     57 H25        -4.0880    2.9760   -0.3600 hn        1 MOL     -0.019473
     58 H26        -6.8600    3.3330    0.2560 h1        1 MOL      0.135999
     59 H27        -5.6040    2.5420    1.2450 h1        1 MOL      0.135999
     60 N6         -5.9250    0.3710   -0.8320 n         1 MOL     -0.145227
     61 C19        -6.3010   -1.0170   -1.1950 c3        1 MOL     -0.307343
     62 C20        -6.2300   -2.0590   -0.0870 c         1 MOL      0.425292
     63 O10        -6.2750   -3.2400   -0.4040 o         1 MOL     -0.472271
     64 C21        -5.4410   -1.4300   -2.4120 c3        1 MOL     -0.043674
     65 C22        -3.9940   -1.7040   -2.2530 c         1 MOL      0.478995
     66 N7         -3.3980   -2.2380   -3.3480 n         1 MOL     -0.739179
     67 O11        -3.3630   -1.4680   -1.2280 o         1 MOL     -0.331773
     68 H28        -4.9470    0.6000   -0.9130 hn        1 MOL      0.000260
     69 H29        -7.3670   -0.9420   -1.4410 h1        1 MOL      0.191541
     70 H30        -5.4640   -0.5550   -3.0630 hc        1 MOL      0.077691
     71 H31        -5.9830   -2.2020   -2.9600 hc        1 MOL      0.077691
     72 H32        -3.9260   -2.5040   -4.1670 hn        1 MOL      0.335899
     73 H33        -2.3990   -2.3300   -3.3100 hn        1 MOL      0.335899
     74 N8         -5.9620   -1.7430    1.1530 n         1 MOL     -0.265447
     75 C23        -5.8170   -2.7270    2.2480 c3        1 MOL     -0.221288
     76 C24        -4.4230   -3.3690    2.3410 c         1 MOL      0.655616
     77 O12        -4.2610   -4.2400    3.2050 o         1 MOL     -0.565406
     78 H34        -5.5610   -0.8340    1.3360 hn        1 MOL      0.305674
     79 H35        -6.6210   -3.4700    2.2530 h1        1 MOL      0.126268
     80 H36        -6.0430   -2.1620    3.1480 h1        1 MOL      0.126268
     81 N9         -3.4230   -3.0040    1.4680 n         1 MOL     -0.598509
     82 C25        -2.0570   -3.6180    1.4410 c3        1 MOL      0.233653
     83 C26        -0.8470   -2.5990    1.2990 c         1 MOL      0.591517
     84 O13        -0.9770   -1.5950    0.5930 o         1 MOL     -0.679778
     85 C27        -2.0170   -4.8070    0.4890 c3        1 MOL     -0.081761
     86 C28        -3.1090   -5.8130    0.6160 ca        1 MOL      0.007279
     87 C29        -4.1180   -5.7900   -0.3330 ca        1 MOL     -0.026507
     88 C30        -3.0010   -6.9120    1.5130 ca        1 MOL     -0.026507
     89 C31        -5.0230   -6.8550   -0.4640 ca        1 MOL     -0.455480
     90 C32        -3.8800   -8.0240    1.4000 ca        1 MOL     -0.455480
     91 C33        -4.9540   -7.9670    0.4340 ca        1 MOL      0.518582
     92 O14        -5.8490   -8.9910    0.4020 oh        1 MOL     -0.517672
     93 H37        -3.6540   -2.3930    0.6860 hn        1 MOL      0.372629
     94 H38        -2.0010   -4.1290    2.4100 h1        1 MOL      0.011001
     95 H39        -1.0850   -5.3490    0.6400 hc        1 MOL      0.004714
     96 H40        -1.9630   -4.3950   -0.5140 hc        1 MOL      0.004714
     97 H41        -4.1590   -4.9570   -1.0320 ha        1 MOL      0.112618
     98 H42        -2.2990   -6.8480    2.3240 ha        1 MOL      0.112618
     99 H43        -5.7510   -6.8610   -1.2650 ha        1 MOL      0.186996
    100 H44        -3.9200   -8.8560    2.0830 ha        1 MOL      0.186996
    101 H45        -5.5920   -9.7400    0.9630 ho        1 MOL      0.358740
    102 N10         0.2810   -2.9300    1.8530 n         1 MOL     -0.559550
    103 C34         1.5980   -2.2420    1.7070 c3        1 MOL      0.021241
    104 C35         2.7110   -3.2450    1.3500 c         1 MOL      0.589317
    105 O15         2.9180   -4.2010    2.1030 o         1 MOL     -0.554267
    106 C36         1.9620   -1.5530    3.0720 c3        1 MOL     -0.158827
    107 C37         0.9910   -0.4740    3.4020 c3        1 MOL      0.340062
    108 C38         3.4300   -1.0200    3.2100 c3        1 MOL      0.036589
    109 C39         1.1220    0.2290    4.7580 c3        1 MOL     -0.314918
    110 H46         0.2370   -3.7820    2.4060 hn        1 MOL      0.319040
    111 H47         1.4740   -1.5180    0.9010 h1        1 MOL      0.094817
    112 H48         1.9790   -2.3290    3.8430 hc        1 MOL      0.068115
    113 H49         0.0350   -0.9920    3.4830 hc        1 MOL     -0.033184
    114 H50         0.9130    0.3150    2.6550 hc        1 MOL     -0.033184
    115 H51         3.8190   -0.3700    2.4230 hc        1 MOL     -0.014388
    116 H52         3.6010   -0.5520    4.1840 hc        1 MOL     -0.014388
    117 H53         4.0710   -1.9050    3.2040 hc        1 MOL     -0.014388
    118 H54         1.2380   -0.5260    5.5340 hc        1 MOL      0.063964
    119 H55         1.9260    0.9720    4.7440 hc        1 MOL      0.063964
    120 H56         0.2610    0.8380    5.0440 hc        1 MOL      0.063964
    121 N11         3.3310   -3.1010    0.2030 n         1 MOL     -0.356427
    122 C40         4.4350   -3.8530   -0.4230 c3        1 MOL      0.039873
    123 C41         5.7480   -3.2280    0.1220 c         1 MOL      0.375457
    124 O16         5.6980   -2.1690    0.7340 o         1 MOL     -0.359296
    125 C42         4.4030   -3.7600   -1.9030 c3        1 MOL     -0.143335
    126 O17         4.7040   -2.4770   -2.4070 oh        1 MOL     -0.504579
    127 H57         3.0380   -2.2960   -0.3450 hn        1 MOL      0.229513
    128 H58         4.3720   -4.9070   -0.1390 h1        1 MOL      0.085919
    129 H59         3.4080   -4.0790   -2.2110 h1        1 MOL      0.102725
    130 H60         5.0340   -4.4830   -2.4290 h1        1 MOL      0.102725
    131 H61         4.9030   -2.5420   -3.3360 ho        1 MOL      0.416565
    132 N12         6.8500   -3.7790   -0.2640 n         1 MOL     -0.346161
    133 C43         8.2010   -3.2090    0.0790 c3        1 MOL      0.119663
    134 C44         8.4690   -1.8790   -0.6040 c         1 MOL      0.394011
    135 O18         9.0090   -0.8870   -0.0260 o         1 MOL     -0.504994
    136 C45         9.2990   -4.2240   -0.1860 c3        1 MOL     -0.232027
    137 H62         6.7370   -4.7160   -0.6190 hn        1 MOL      0.257138
    138 H63         8.2300   -3.0590    1.1590 h1        1 MOL      0.091669
    139 H64         9.4620   -4.5440   -1.2140 hc        1 MOL      0.078825
    140 H65        10.2180   -3.8840    0.2850 hc        1 MOL      0.078825
    141 H66         9.0090   -5.1330    0.3470 hc        1 MOL      0.078825
    142 N13         8.0840   -1.6950   -1.8590 n         1 MOL     -0.332992
    143 C46         8.1520   -0.4980   -2.6230 c3        1 MOL      0.160209
    144 C47         7.3210    0.5450   -1.9280 c         1 MOL      0.361801
    145 O19         7.7380    1.6880   -1.9460 o         1 MOL     -0.500990
    146 C48         7.5260   -0.8330   -4.0080 c3        1 MOL     -0.283796
    147 H67         7.6850   -2.5220   -2.2720 hn        1 MOL      0.217413
    148 H68         9.1750   -0.1330   -2.7260 h1        1 MOL      0.086098
    149 H69         7.4620    0.0580   -4.6360 hc        1 MOL      0.074734
    150 H70         8.2000   -1.5520   -4.4860 hc        1 MOL      0.074734
    151 H71         6.6070   -1.3670   -3.7990 hc        1 MOL      0.074734
    152 N14         6.1520    0.2530   -1.2880 n         1 MOL     -0.151079
    153 C49         5.3740    1.3220   -0.6960 c3        1 MOL     -0.103748
    154 C50         6.0070    1.7390    0.6080 c         1 MOL      0.366265
    155 O20         6.0300    2.9470    0.9570 o         1 MOL     -0.565439
    156 C51         3.9190    0.8190   -0.4640 c3        1 MOL      0.242932
    157 C52         3.2480    0.5590   -1.7670 c3        1 MOL     -0.014150
    158 C53         1.7370    0.2420   -1.6540 c         1 MOL      0.728426
    159 O21         1.0250    1.0670   -1.1040 o         1 MOL     -0.752001
    160 O22         1.2400   -0.8580   -2.0020 o         1 MOL     -0.752001
    161 H72         5.9340   -0.7270   -1.1290 hn        1 MOL      0.177186
    162 H73         5.3590    2.2380   -1.2970 h1        1 MOL      0.124207
    163 H74         3.3250    1.5660    0.0600 hc        1 MOL     -0.023600
    164 H75         3.9600   -0.0240    0.2350 hc        1 MOL     -0.023600
    165 H76         3.7190   -0.1410   -2.4670 hc        1 MOL     -0.054035
    166 H77         3.3730    1.5400   -2.2240 hc        1 MOL     -0.054035
    167 N15         6.6620    0.8120    1.3020 n         1 MOL      0.112187
    168 C54         7.4220    1.1320    2.5010 c3        1 MOL     -0.376048
    169 H78         7.1340    0.4560    3.3050 h1        1 MOL      0.123508
    170 H79         8.4870    1.0200    2.2970 h1        1 MOL      0.123508
    171 H80         7.2150    2.1600    2.7990 h1        1 MOL      0.123508
    172 H81         6.4960   -0.1510    1.0590 hn        1 MOL      0.020756
    173 Ca1        -1.2410   -0.0860   -1.5590 Ca        1 MOL      1.730968
    174 O23        -0.6860   -2.6880   -2.3510 oh        1 MOL     -0.781457
    175 H82        -0.5470   -3.6290   -2.2260 ho        1 MOL      0.386141
    176 H83         0.1840   -2.3300   -2.5180 ho        1 MOL      0.386141
    177 O24        -0.6560   -0.4540   -4.1650 oh        1 MOL     -0.781457
    178 H84        -0.4640   -1.2760   -4.6230 ho        1 MOL      0.386141
    179 H85        -1.3010   -0.0200   -4.7290 ho        1 MOL      0.386141
@<TRIPOS>BOND
     1    1    2 1   
     2    1    4 1   
     3    1    5 1   
     4    1    6 1   
     5    2    3 2   
     6    2    7 1   
     7    7    8 1   
     8    7   15 1   
     9    8    9 1   
    10    8   11 1   
    11    8   16 1   
    12    9   10 2   
    13    9   19 1   
    14   11   12 1   
    15   11   17 1   
    16   11   18 1   
    17   12   13 1   
    18   12   14 1   
    19   19   20 1   
    20   19   28 1   
    21   20   21 1   
    22   20   23 1   
    23   20   29 1   
    24   21   22 2   
    25   21   41 1   
    26   23   24 1   
    27   23   30 1   
    28   23   31 1   
    29   24   25 1   
    30   24   32 1   
    31   24   33 1   
    32   25   26 1   
    33   25   34 1   
    34   25   35 1   
    35   26   27 1   
    36   26   36 1   
    37   26   37 1   
    38   27   38 1   
    39   27   39 1   
    40   27   40 1   
    41   41   42 1   
    42   41   49 1   
    43   42   43 1   
    44   42   45 1   
    45   42   50 1   
    46   43   44 2   
    47   43   53 1   
    48   45   46 1   
    49   45   51 1   
    50   45   52 1   
    51   46   47 1   
    52   46   48 1   
    53   53   54 1   
    54   53   57 1   
    55   54   55 1   
    56   54   58 1   
    57   54   59 1   
    58   55   56 2   
    59   55   60 1   
    60   60   61 1   
    61   60   68 1   
    62   61   62 1   
    63   61   64 1   
    64   61   69 1   
    65   62   63 2   
    66   62   74 1   
    67   64   65 1   
    68   64   70 1   
    69   64   71 1   
    70   65   66 1   
    71   65   67 2   
    72   66   72 1   
    73   66   73 1   
    74   74   75 1   
    75   74   78 1   
    76   75   76 1   
    77   75   79 1   
    78   75   80 1   
    79   76   77 2   
    80   76   81 1   
    81   81   82 1   
    82   81   93 1   
    83   82   83 1   
    84   82   85 1   
    85   82   94 1   
    86   83   84 2   
    87   83  102 1   
    88   85   86 1   
    89   85   95 1   
    90   85   96 1   
    91   86   87 ar  
    92   86   88 ar  
    93   87   89 ar  
    94   87   97 1   
    95   88   90 ar  
    96   88   98 1   
    97   89   91 ar  
    98   89   99 1   
    99   90   91 ar  
   100   90  100 1   
   101   91   92 1   
   102   92  101 1   
   103  102  103 1   
   104  102  110 1   
   105  103  104 1   
   106  103  106 1   
   107  103  111 1   
   108  104  105 2   
   109  104  121 1   
   110  106  107 1   
   111  106  108 1   
   112  106  112 1   
   113  107  109 1   
   114  107  113 1   
   115  107  114 1   
   116  108  115 1   
   117  108  116 1   
   118  108  117 1   
   119  109  118 1   
   120  109  119 1   
   121  109  120 1   
   122  121  122 1   
   123  121  127 1   
   124  122  123 1   
   125  122  125 1   
   126  122  128 1   
   127  123  124 2   
   128  123  132 1   
   129  125  126 1   
   130  125  129 1   
   131  125  130 1   
   132  126  131 1   
   133  132  133 1   
   134  132  137 1   
   135  133  134 1   
   136  133  136 1   
   137  133  138 1   
   138  134  135 2   
   139  134  142 1   
   140  136  139 1   
   141  136  140 1   
   142  136  141 1   
   143  142  143 1   
   144  142  147 1   
   145  143  144 1   
   146  143  146 1   
   147  143  148 1   
   148  144  145 2   
   149  144  152 1   
   150  146  149 1   
   151  146  150 1   
   152  146  151 1   
   153  152  153 1   
   154  152  161 1   
   155  153  154 1   
   156  153  156 1   
   157  153  162 1   
   158  154  155 2   
   159  154  167 1   
   160  156  157 1   
   161  156  163 1   
   162  156  164 1   
   163  157  158 1   
   164  157  165 1   
   165  157  166 1   
   166  158  159 1   
   167  158  160 1   
   168  167  168 1   
   169  167  172 1   
   170  168  169 1   
   171  168  170 1   
   172  168  171 1   
   173  174  175 1   
   174  174  176 1   
   175  177  178 1   
   176  177  179 1   
@<TRIPOS>SUBSTRUCTURE
     1 MOL         1 TEMP              0 ****  ****    0 ROOT
