@<TRIPOS>MOLECULE
MOL
  189   185     1     0     0
SMALL
resp


@<TRIPOS>ATOM
      1 C1         -1.0580    1.5910    6.3740 c3        1 MOL     -0.286570
      2 C2         -1.1550    1.5060    4.8260 c         1 MOL      0.734017
      3 O1         -0.2050    1.9700    4.1720 o         1 MOL     -0.626742
      4 H1         -1.6860    2.4070    6.7320 hc        1 MOL      0.071155
      5 H2         -1.3970    0.6520    6.8120 hc        1 MOL      0.071155
      6 H3         -0.0240    1.7760    6.6640 hc        1 MOL      0.071155
      7 N1         -2.2060    0.8300    4.3720 n         1 MOL     -0.674335
      8 C3         -2.5070    0.8220    2.9540 c3        1 MOL      0.335362
      9 C4         -2.9210    2.2530    2.4920 c         1 MOL      0.412974
     10 O2         -4.0190    2.6540    2.8940 o         1 MOL     -0.519738
     11 C5         -3.5010   -0.2860    2.6660 c3        1 MOL     -0.273268
     12 C6         -4.3010   -0.2140    1.3170 c         1 MOL      0.642154
     13 O3         -3.8300    0.2910    0.2890 o         1 MOL     -0.573862
     14 O4         -5.4600   -0.5850    1.3000 o         1 MOL     -0.573862
     15 H4         -2.9260    0.5780    5.0390 hn        1 MOL      0.363856
     16 H5         -1.6580    0.5800    2.3120 h1        1 MOL     -0.062295
     17 H6         -4.2490   -0.2810    3.4520 hc        1 MOL      0.050599
     18 H7         -2.9040   -1.2070    2.6890 hc        1 MOL      0.050599
     19 N2         -1.9650    3.0660    2.0840 n         1 MOL     -0.143039
     20 C7         -1.9380    4.5220    2.0840 c3        1 MOL     -0.056043
     21 C8         -2.8670    5.1420    1.0810 c         1 MOL      0.461804
     22 O5         -3.3520    6.2450    1.3480 o         1 MOL     -0.559905
     23 C9         -0.4630    4.9650    1.8950 c3        1 MOL     -0.137823
     24 C10         0.0840    4.7490    0.5070 c3        1 MOL      0.216061
     25 C11         1.5550    5.1130    0.5240 c3        1 MOL      0.017323
     26 C12         2.2500    4.5430   -0.7300 c3        1 MOL      0.053076
     27 N3          2.2910    5.5150   -1.8560 n4        1 MOL     -0.364896
     28 H8         -1.1310    2.5940    1.7760 hn        1 MOL      0.242950
     29 H9         -2.2190    4.9140    3.0620 h1        1 MOL      0.091648
     30 H10         0.0350    4.4060    2.6910 hc        1 MOL      0.061830
     31 H11        -0.4310    6.0090    2.1770 hc        1 MOL      0.061830
     32 H12        -0.4150    5.4960   -0.1130 hc        1 MOL     -0.061444
     33 H13        -0.0520    3.6930    0.2650 hc        1 MOL     -0.061444
     34 H14         1.9070    4.5700    1.3960 hc        1 MOL      0.021861
     35 H15         1.6300    6.1690    0.8010 hc        1 MOL      0.021861
     36 H16         1.6090    3.6940   -1.0020 hx        1 MOL      0.018612
     37 H17         3.2320    4.2120   -0.3880 hx        1 MOL      0.018612
     38 H18         2.7900    6.3510   -1.5920 hn        1 MOL      0.326440
     39 H19         2.6970    5.1090   -2.6840 hn        1 MOL      0.326440
     40 H20         1.3550    5.6720   -2.2000 hn        1 MOL      0.326440
     41 N4         -3.1150    4.4540   -0.0610 n         1 MOL     -0.159395
     42 C13        -4.1790    4.7170   -1.0340 c3        1 MOL      0.067776
     43 C14        -5.3940    3.7770   -0.9900 c         1 MOL      0.392074
     44 O6         -6.2660    3.9780   -1.7920 o         1 MOL     -0.518914
     45 C15        -3.5290    4.5640   -2.4620 c3        1 MOL     -0.289105
     46 C16        -2.5230    3.4240   -2.6210 c         1 MOL      0.857516
     47 O7         -2.5010    2.4370   -1.8320 o         1 MOL     -0.728752
     48 O8         -1.7690    3.4270   -3.6150 o         1 MOL     -0.728752
     49 H21        -2.5330    3.6400   -0.2170 hn        1 MOL     -0.053135
     50 H22        -4.4850    5.7550   -0.9200 h1        1 MOL      0.093134
     51 H23        -2.9420    5.4670   -2.5580 hc        1 MOL      0.068721
     52 H24        -4.3570    4.4920   -3.1750 hc        1 MOL      0.068721
     53 N5         -5.4800    2.7930   -0.1120 n         1 MOL     -0.067165
     54 C17        -6.7010    2.0880    0.3060 c3        1 MOL     -0.086522
     55 C18        -7.3020    1.0020   -0.6510 c         1 MOL      0.452805
     56 O9         -8.5270    1.0570   -0.9170 o         1 MOL     -0.548376
     57 H25        -4.6710    2.6200    0.4660 hn        1 MOL      0.050269
     58 H26        -7.4520    2.8420    0.5520 h1        1 MOL      0.086546
     59 H27        -6.4510    1.6420    1.2740 h1        1 MOL      0.086546
     60 N6         -6.4830    0.2110   -1.3620 n         1 MOL     -0.074011
     61 C19        -6.9000   -0.8140   -2.3150 c3        1 MOL      0.068008
     62 C20        -7.2070   -2.1400   -1.5820 c         1 MOL      0.340485
     63 O10        -7.7790   -3.0640   -2.1710 o         1 MOL     -0.497137
     64 C21        -5.8940   -0.9400   -3.4910 c3        1 MOL     -0.303578
     65 C22        -4.4670   -0.8120   -2.9610 c         1 MOL      0.741781
     66 O11        -4.0830   -1.5710   -1.9990 o         1 MOL     -0.677346
     67 O12        -3.6030   -0.0780   -3.5530 o         1 MOL     -0.677346
     68 H28        -5.5610    0.1050   -0.9720 hn        1 MOL     -0.029092
     69 H29        -7.8660   -0.5410   -2.7470 h1        1 MOL      0.107191
     70 H30        -6.0660   -0.1050   -4.1770 hc        1 MOL      0.101768
     71 H31        -6.0500   -1.9280   -3.9300 hc        1 MOL      0.101768
     72 N7         -6.8560   -2.3050   -0.2550 n         1 MOL     -0.143780
     73 C23        -6.7650   -3.5590    0.4950 c3        1 MOL     -0.190828
     74 C24        -5.4340   -4.3690    0.3340 c         1 MOL      0.564796
     75 O13        -5.4280   -5.5320    0.6720 o         1 MOL     -0.554148
     76 H32        -6.3700   -1.5350    0.1730 hn        1 MOL      0.142047
     77 H33        -7.5520   -4.2030    0.0950 h1        1 MOL      0.103110
     78 H34        -6.9630   -3.2540    1.5190 h1        1 MOL      0.103110
     79 N8         -4.2950   -3.7330   -0.0810 n         1 MOL     -0.142984
     80 C25        -2.9950   -4.3530   -0.2240 c3        1 MOL     -0.243396
     81 C26        -1.8730   -3.4430    0.1430 c         1 MOL      0.599166
     82 O14        -1.9630   -2.1910    0.0260 o         1 MOL     -0.526139
     83 C27        -2.6930   -4.8360   -1.5670 c3        1 MOL      0.425277
     84 C28        -3.6870   -5.8640   -1.9740 c3        1 MOL     -0.397806
     85 O15        -2.7970   -3.8350   -2.5830 oh        1 MOL     -0.592121
     86 H35        -4.3500   -2.7550    0.1430 hn        1 MOL      0.184700
     87 H36        -2.9440   -5.1820    0.4860 h1        1 MOL      0.090366
     88 H37        -1.6840   -5.2540   -1.6120 h1        1 MOL      0.009613
     89 H38        -3.2930   -3.1450   -2.1280 ho        1 MOL      0.353560
     90 H39        -3.7380   -6.5960   -1.1690 hc        1 MOL      0.102965
     91 H40        -4.6570   -5.4250   -2.1830 hc        1 MOL      0.102965
     92 H41        -3.2810   -6.4680   -2.7830 hc        1 MOL      0.102965
     93 N9         -0.7480   -4.0100    0.5890 n         1 MOL     -0.542432
     94 C29         0.4980   -3.4020    1.0960 c3        1 MOL      0.048795
     95 C30         1.6180   -3.7530    0.0500 c         1 MOL      0.482100
     96 O16         2.0710   -4.9070   -0.0980 o         1 MOL     -0.542631
     97 C31         0.7750   -3.8150    2.5640 c3        1 MOL     -0.034936
     98 C32        -0.0270   -2.8380    3.5320 c3        1 MOL     -0.032860
     99 C33         2.2790   -3.7960    2.7920 c3        1 MOL     -0.066505
    100 C34         0.1420   -3.2330    5.0110 c3        1 MOL     -0.161195
    101 H42        -0.6840   -5.0200    0.5220 hn        1 MOL      0.301635
    102 H43         0.4810   -2.3170    1.1030 h1        1 MOL      0.069066
    103 H44         0.4100   -4.8380    2.6540 hc        1 MOL      0.060739
    104 H45        -1.1010   -2.8270    3.3230 hc        1 MOL      0.063993
    105 H46         0.2650   -1.7930    3.4770 hc        1 MOL      0.063993
    106 H47         2.4620   -4.1400    3.8050 hc        1 MOL      0.017785
    107 H48         2.8560   -4.5340    2.2340 hc        1 MOL      0.017785
    108 H49         2.7490   -2.8180    2.6580 hc        1 MOL      0.017785
    109 H50        -0.1950   -4.2610    5.1170 hc        1 MOL      0.039977
    110 H51         1.1540   -3.0410    5.3530 hc        1 MOL      0.039977
    111 H52        -0.5140   -2.6320    5.6380 hc        1 MOL      0.039977
    112 N10         2.1640   -2.7360   -0.6580 n         1 MOL     -0.238627
    113 C35         3.4190   -2.7230   -1.4750 c3        1 MOL     -0.083916
    114 C36         4.7060   -2.5610   -0.5890 c         1 MOL      0.463801
    115 O17         4.5440   -2.4060    0.6120 o         1 MOL     -0.316233
    116 C37         3.2950   -1.4900   -2.4400 c3        1 MOL      0.283293
    117 C38         2.2700   -1.5050   -3.5690 c3        1 MOL     -0.513332
    118 O18         2.9830   -0.3420   -1.7520 oh        1 MOL     -0.533690
    119 H53         1.7600   -1.8450   -0.3980 hn        1 MOL      0.126134
    120 H54         3.5560   -3.5710   -2.1540 h1        1 MOL      0.106922
    121 H55         4.2800   -1.2610   -2.8650 h1        1 MOL     -0.012735
    122 H56         2.1960   -0.5780   -1.2550 ho        1 MOL      0.280767
    123 H57         2.3230   -2.4830   -4.0470 hc        1 MOL      0.141363
    124 H58         1.2610   -1.4350   -3.1580 hc        1 MOL      0.141363
    125 H59         2.3320   -0.7190   -4.3060 hc        1 MOL      0.141363
    126 N11         5.9080   -2.5780   -1.2150 n         1 MOL     -0.478427
    127 C39         7.1920   -2.2750   -0.5550 c3        1 MOL      0.016938
    128 C40         7.1810   -1.0120    0.3470 c         1 MOL      0.278046
    129 O19         7.2500   -1.1250    1.5630 o         1 MOL     -0.449762
    130 C41         8.3370   -2.3200   -1.5720 c3        1 MOL      0.283292
    131 C42         8.5480   -3.6960   -2.1750 c3        1 MOL     -0.443695
    132 O20         8.0260   -1.2880   -2.5550 oh        1 MOL     -0.562938
    133 H60         5.8480   -2.7580   -2.2140 hn        1 MOL      0.283733
    134 H61         7.3680   -3.0590    0.1820 h1        1 MOL      0.120278
    135 H62         9.2600   -2.1420   -1.0220 h1        1 MOL      0.025584
    136 H63         8.7150   -1.1980   -3.2100 ho        1 MOL      0.313092
    137 H64         8.7940   -4.4710   -1.4640 hc        1 MOL      0.138504
    138 H65         7.6650   -3.9070   -2.7900 hc        1 MOL      0.138504
    139 H66         9.3620   -3.7060   -2.8970 hc        1 MOL      0.138504
    140 N12         6.7550    0.1550   -0.2370 n         1 MOL     -0.048864
    141 C43         6.7040    1.4600    0.3930 c3        1 MOL     -0.083516
    142 C44         5.4740    1.6930    1.3610 c         1 MOL      0.479478
    143 O21         5.3570    2.7770    1.9520 o         1 MOL     -0.554222
    144 C45         6.8980    2.5620   -0.6600 c3        1 MOL     -0.215589
    145 C46         8.2040    2.4580   -1.5770 c3        1 MOL     -0.242451
    146 C47         8.0950    3.3340   -2.8250 c3        1 MOL      0.030763
    147 C48         9.3230    3.2020   -3.8340 c3        1 MOL     -0.228472
    148 N13         9.5460    1.7650   -4.2880 n4        1 MOL     -0.129737
    149 H67         6.6180    0.0920   -1.2330 hn        1 MOL      0.241566
    150 H68         7.4920    1.4740    1.1420 h1        1 MOL      0.108404
    151 H69         7.0660    3.5040   -0.1510 hc        1 MOL      0.118435
    152 H70         6.0610    2.6730   -1.3550 hc        1 MOL      0.118435
    153 H71         8.3080    1.3790   -1.7100 hc        1 MOL      0.086214
    154 H72         9.0300    2.8660   -0.9970 hc        1 MOL      0.086214
    155 H73         8.0070    4.3910   -2.5640 hc        1 MOL      0.062597
    156 H74         7.1760    3.1390   -3.3860 hc        1 MOL      0.062597
    157 H75        10.2450    3.4160   -3.2830 hx        1 MOL      0.162928
    158 H76         9.2090    3.7980   -4.7440 hx        1 MOL      0.162928
    159 H77        10.3080    1.6120   -4.9250 hn        1 MOL      0.218274
    160 H78         9.8990    1.1130   -3.5980 hn        1 MOL      0.218274
    161 H79         8.6510    1.4210   -4.6230 hn        1 MOL      0.218274
    162 N14         4.6640    0.6980    1.5220 n         1 MOL     -0.083385
    163 C49         3.6270    0.5470    2.5740 c3        1 MOL     -0.147480
    164 C50         4.0980   -0.3690    3.7230 c         1 MOL      0.446288
    165 O22         3.7370   -0.0800    4.8820 o         1 MOL     -0.528404
    166 C51         2.2810    0.0180    1.9730 c3        1 MOL      0.206329
    167 C52         1.7370    1.0160    1.0050 c3        1 MOL      0.249331
    168 C53         0.5190    0.4480    0.3200 c         1 MOL      0.698017
    169 O23         0.5820   -0.5450   -0.4200 o         1 MOL     -0.698839
    170 O24        -0.5140    1.0850    0.4690 o         1 MOL     -0.698839
    171 H80         4.7820   -0.0960    0.9040 hn        1 MOL     -0.059691
    172 H81         3.3760    1.4880    3.0620 h1        1 MOL      0.116387
    173 H82         1.5340   -0.1680    2.7330 hc        1 MOL     -0.023923
    174 H83         2.6060   -0.9190    1.5200 hc        1 MOL     -0.023923
    175 H84         2.4940    1.2150    0.2450 hc        1 MOL     -0.099413
    176 H85         1.4990    1.9390    1.5220 hc        1 MOL     -0.099413
    177 N15         4.8730   -1.3780    3.4100 n         1 MOL     -0.054347
    178 C54         5.5130   -2.0510    4.4890 c3        1 MOL     -0.269865
    179 H86         6.5890   -2.0760    4.3150 h1        1 MOL      0.099748
    180 H87         5.3090   -1.5220    5.4200 h1        1 MOL      0.099748
    181 H88         5.1320   -3.0710    4.5590 h1        1 MOL      0.099748
    182 H89         5.2300   -1.5140    2.4760 hn        1 MOL      0.155685
    183 Ca1        -1.8100    0.0740   -1.5010 Ca        1 MOL      1.747886
    184 O25        -0.0010    1.3760   -3.1170 oh        1 MOL     -0.831833
    185 H90        -0.4500    2.1240   -3.5080 ho        1 MOL      0.388462
    186 H91         0.9200    1.6390   -3.0890 ho        1 MOL      0.388462
    187 O26        -1.1080   -1.8320   -3.1540 oh        1 MOL     -0.831833
    188 H92        -1.6090   -2.6340   -3.0000 ho        1 MOL      0.388462
    189 H93        -0.9690   -1.8220   -4.1000 ho        1 MOL      0.388462
@<TRIPOS>BOND
     1    1    2 1   
     2    1    4 1   
     3    1    5 1   
     4    1    6 1   
     5    2    3 2   
     6    2    7 1   
     7    7    8 1   
     8    7   15 1   
     9    8    9 1   
    10    8   11 1   
    11    8   16 1   
    12    9   10 2   
    13    9   19 1   
    14   11   12 1   
    15   11   17 1   
    16   11   18 1   
    17   12   13 1   
    18   12   14 1   
    19   19   20 1   
    20   19   28 1   
    21   20   21 1   
    22   20   23 1   
    23   20   29 1   
    24   21   22 2   
    25   21   41 1   
    26   23   24 1   
    27   23   30 1   
    28   23   31 1   
    29   24   25 1   
    30   24   32 1   
    31   24   33 1   
    32   25   26 1   
    33   25   34 1   
    34   25   35 1   
    35   26   27 1   
    36   26   36 1   
    37   26   37 1   
    38   27   38 1   
    39   27   39 1   
    40   27   40 1   
    41   41   42 1   
    42   41   49 1   
    43   42   43 1   
    44   42   45 1   
    45   42   50 1   
    46   43   44 2   
    47   43   53 1   
    48   45   46 1   
    49   45   51 1   
    50   45   52 1   
    51   46   47 1   
    52   46   48 1   
    53   53   54 1   
    54   53   57 1   
    55   54   55 1   
    56   54   58 1   
    57   54   59 1   
    58   55   56 2   
    59   55   60 1   
    60   60   61 1   
    61   60   68 1   
    62   61   62 1   
    63   61   64 1   
    64   61   69 1   
    65   62   63 2   
    66   62   72 1   
    67   64   65 1   
    68   64   70 1   
    69   64   71 1   
    70   65   66 1   
    71   65   67 1   
    72   72   73 1   
    73   72   76 1   
    74   73   74 1   
    75   73   77 1   
    76   73   78 1   
    77   74   75 2   
    78   74   79 1   
    79   79   80 1   
    80   79   86 1   
    81   80   81 1   
    82   80   83 1   
    83   80   87 1   
    84   81   82 2   
    85   81   93 1   
    86   83   84 1   
    87   83   85 1   
    88   83   88 1   
    89   84   90 1   
    90   84   91 1   
    91   84   92 1   
    92   85   89 1   
    93   93   94 1   
    94   93  101 1   
    95   94   95 1   
    96   94   97 1   
    97   94  102 1   
    98   95   96 2   
    99   95  112 1   
   100   97   98 1   
   101   97   99 1   
   102   97  103 1   
   103   98  100 1   
   104   98  104 1   
   105   98  105 1   
   106   99  106 1   
   107   99  107 1   
   108   99  108 1   
   109  100  109 1   
   110  100  110 1   
   111  100  111 1   
   112  112  113 1   
   113  112  119 1   
   114  113  114 1   
   115  113  116 1   
   116  113  120 1   
   117  114  115 2   
   118  114  126 1   
   119  116  117 1   
   120  116  118 1   
   121  116  121 1   
   122  117  123 1   
   123  117  124 1   
   124  117  125 1   
   125  118  122 1   
   126  126  127 1   
   127  126  133 1   
   128  127  128 1   
   129  127  130 1   
   130  127  134 1   
   131  128  129 2   
   132  128  140 1   
   133  130  131 1   
   134  130  132 1   
   135  130  135 1   
   136  131  137 1   
   137  131  138 1   
   138  131  139 1   
   139  132  136 1   
   140  140  141 1   
   141  140  149 1   
   142  141  142 1   
   143  141  144 1   
   144  141  150 1   
   145  142  143 2   
   146  142  162 1   
   147  144  145 1   
   148  144  151 1   
   149  144  152 1   
   150  145  146 1   
   151  145  153 1   
   152  145  154 1   
   153  146  147 1   
   154  146  155 1   
   155  146  156 1   
   156  147  148 1   
   157  147  157 1   
   158  147  158 1   
   159  148  159 1   
   160  148  160 1   
   161  148  161 1   
   162  162  163 1   
   163  162  171 1   
   164  163  164 1   
   165  163  166 1   
   166  163  172 1   
   167  164  165 2   
   168  164  177 1   
   169  166  167 1   
   170  166  173 1   
   171  166  174 1   
   172  167  168 1   
   173  167  175 1   
   174  167  176 1   
   175  168  169 1   
   176  168  170 1   
   177  177  178 1   
   178  177  182 1   
   179  178  179 1   
   180  178  180 1   
   181  178  181 1   
   182  184  185 1   
   183  184  186 1   
   184  187  188 1   
   185  187  189 1   
@<TRIPOS>SUBSTRUCTURE
     1 MOL         1 TEMP              0 ****  ****    0 ROOT
