@<TRIPOS>MOLECULE
MOL
  189   185     1     0     0
SMALL
resp


@<TRIPOS>ATOM
      1 C1         -0.7870    2.8500    5.9760 c3        1 MOL     -0.364556
      2 C2         -1.0790    2.3410    4.5790 c         1 MOL      0.741911
      3 O1         -0.2550    2.5950    3.7130 o         1 MOL     -0.618428
      4 H1         -1.4940    3.6400    6.2300 hc        1 MOL      0.088392
      5 H2         -0.8860    2.0320    6.6890 hc        1 MOL      0.088392
      6 H3          0.2280    3.2460    6.0140 hc        1 MOL      0.088392
      7 N1         -2.1820    1.7520    4.2740 n         1 MOL     -0.573498
      8 C3         -2.5560    1.5310    2.9040 c3        1 MOL      0.003333
      9 C4         -3.0800    2.8290    2.1910 c         1 MOL      0.535249
     10 O2         -4.0570    3.4950    2.6210 o         1 MOL     -0.546663
     11 C5         -3.6220    0.4330    2.8690 c3        1 MOL     -0.033217
     12 C6         -4.1220    0.3160    1.4440 c         1 MOL      0.674273
     13 O3         -5.3470    0.4370    1.2570 o         1 MOL     -0.640929
     14 O4         -3.3080    0.0900    0.5390 o         1 MOL     -0.640929
     15 H4         -2.8990    1.5370    4.9490 hn        1 MOL      0.325742
     16 H5         -1.7170    1.1330    2.3350 h1        1 MOL      0.047829
     17 H6         -4.4830    0.7030    3.4830 hc        1 MOL      0.000991
     18 H7         -3.2580   -0.5540    3.1360 hc        1 MOL      0.000991
     19 N2         -2.4570    3.2400    1.0670 n         1 MOL     -0.304471
     20 C7         -2.6970    4.5810    0.5310 c3        1 MOL      0.083283
     21 C8         -3.7930    4.5600   -0.5700 c         1 MOL      0.563551
     22 O5         -4.5230    5.5550   -0.6120 o         1 MOL     -0.616635
     23 C9         -1.3140    5.1450    0.1450 c3        1 MOL     -0.127254
     24 C10        -1.1240    6.6230   -0.1160 c3        1 MOL      0.012531
     25 C11        -1.2340    7.4720    1.1100 c3        1 MOL     -0.006704
     26 C12        -0.8040    8.8410    0.7850 c3        1 MOL      0.143185
     27 N3         -1.3380    9.7490    1.8140 n4        1 MOL     -0.423139
     28 H8         -1.7300    2.6790    0.6470 hn        1 MOL      0.236104
     29 H9         -3.1180    5.2550    1.2740 h1        1 MOL      0.013752
     30 H10        -1.0210    4.5650   -0.7350 hc        1 MOL      0.062745
     31 H11        -0.7040    4.7490    0.9650 hc        1 MOL      0.062745
     32 H12        -1.8750    6.9530   -0.8390 hc        1 MOL      0.007038
     33 H13        -0.1510    6.6870   -0.6180 hc        1 MOL      0.007038
     34 H14        -0.6720    7.0170    1.9300 hc        1 MOL      0.035201
     35 H15        -2.2950    7.5010    1.3290 hc        1 MOL      0.035201
     36 H16        -1.1410    9.0930   -0.2160 hx        1 MOL      0.051197
     37 H17         0.2890    8.8770    0.8060 hx        1 MOL      0.051197
     38 H18        -2.1950    9.3370    2.1530 hn        1 MOL      0.338348
     39 H19        -0.7360    9.7550    2.6250 hn        1 MOL      0.338348
     40 H20        -1.5580   10.6460    1.4030 hn        1 MOL      0.338348
     41 N4         -3.9660    3.5520   -1.3340 n         1 MOL     -0.292603
     42 C13        -4.6490    3.5070   -2.6210 c3        1 MOL      0.068997
     43 C14        -5.8880    2.6410   -2.6390 c         1 MOL      0.470906
     44 O6         -6.4710    2.4540   -3.7200 o         1 MOL     -0.533536
     45 C15        -3.6740    3.2190   -3.7760 c3        1 MOL     -0.256546
     46 C16        -2.8340    1.9070   -3.5240 c         1 MOL      0.868134
     47 O7         -1.9120    1.5660   -4.3230 o         1 MOL     -0.750977
     48 O8         -3.0910    1.1970   -2.5380 o         1 MOL     -0.750977
     49 H21        -3.4030    2.7230   -1.2070 hn        1 MOL      0.123254
     50 H22        -4.9680    4.5480   -2.7010 h1        1 MOL      0.064302
     51 H23        -3.0130    4.0820   -3.8770 hc        1 MOL      0.065459
     52 H24        -4.2030    3.1440   -4.7330 hc        1 MOL      0.065459
     53 N5         -6.2470    2.0040   -1.4790 n         1 MOL     -0.378341
     54 C17        -7.5090    1.2030   -1.3080 c3        1 MOL     -0.168382
     55 C18        -7.5910   -0.2860   -1.6370 c         1 MOL      0.478209
     56 O9         -8.6780   -0.8380   -1.4380 o         1 MOL     -0.541003
     57 H25        -5.6500    2.0890   -0.6790 hn        1 MOL      0.279330
     58 H26        -8.3590    1.6480   -1.8130 h1        1 MOL      0.126962
     59 H27        -7.7950    1.3570   -0.2660 h1        1 MOL      0.126962
     60 N6         -6.5030   -0.9500   -2.0750 n         1 MOL     -0.245708
     61 C19        -6.5730   -2.3820   -2.2710 c3        1 MOL      0.014372
     62 C20        -6.7320   -3.1400   -0.9130 c         1 MOL      0.380212
     63 O10        -7.4500   -4.1750   -0.8420 o         1 MOL     -0.537406
     64 C21        -5.3760   -2.9390   -2.9590 c3        1 MOL     -0.273041
     65 C22        -3.9990   -2.4650   -2.4300 c         1 MOL      0.847242
     66 O11        -3.1260   -2.2470   -3.2160 o         1 MOL     -0.752694
     67 O12        -3.7980   -2.3400   -1.2260 o         1 MOL     -0.752694
     68 H28        -5.6620   -0.4350   -2.2920 hn        1 MOL      0.255433
     69 H29        -7.4490   -2.6210   -2.8710 h1        1 MOL      0.098686
     70 H30        -5.4330   -2.5270   -3.9680 hc        1 MOL      0.073864
     71 H31        -5.3170   -4.0330   -2.9940 hc        1 MOL      0.073864
     72 N7         -6.2860   -2.5280    0.1950 n         1 MOL     -0.014388
     73 C23        -6.1470   -3.1200    1.5560 c3        1 MOL     -0.058505
     74 C24        -4.9990   -4.1340    1.5910 c         1 MOL      0.522626
     75 O13        -5.1800   -5.1890    2.1200 o         1 MOL     -0.542565
     76 H32        -5.7230   -1.7040    0.0700 hn        1 MOL      0.001560
     77 H33        -7.0830   -3.5980    1.8450 h1        1 MOL      0.061104
     78 H34        -5.9790   -2.3780    2.3400 h1        1 MOL      0.061104
     79 N8         -3.8140   -3.7980    1.0250 n         1 MOL     -0.173552
     80 C25        -2.5490   -4.5930    1.2440 c3        1 MOL     -0.425483
     81 C26        -1.3220   -3.6240    1.2580 c         1 MOL      0.897569
     82 O14        -1.4170   -2.5660    0.6420 o         1 MOL     -0.729559
     83 C27        -2.3040   -5.6550    0.0920 c3        1 MOL      0.537360
     84 C28        -3.2340   -6.8760    0.1130 c3        1 MOL     -0.436491
     85 O15        -2.6650   -5.0130   -1.0390 oh        1 MOL     -0.595431
     86 H35        -3.8510   -2.8800    0.6040 hn        1 MOL      0.194977
     87 H36        -2.5400   -5.0940    2.2150 h1        1 MOL      0.129201
     88 H37        -1.2790   -5.9980    0.2090 h1        1 MOL     -0.033685
     89 H38        -3.3200   -4.3880   -0.7340 ho        1 MOL      0.374436
     90 H39        -3.2670   -7.2440   -0.9050 hc        1 MOL      0.104352
     91 H40        -2.9050   -7.7030    0.7380 hc        1 MOL      0.104352
     92 H41        -4.2250   -6.6040    0.4760 hc        1 MOL      0.104352
     93 N9         -0.2030   -4.0530    1.9330 n         1 MOL     -0.749463
     94 C29         1.0280   -3.2470    2.0000 c3        1 MOL      0.460898
     95 C30         2.0370   -3.6610    0.8670 c         1 MOL      0.411394
     96 O16         2.3250   -4.8760    0.7680 o         1 MOL     -0.551025
     97 C31         1.5160   -3.2920    3.4510 c3        1 MOL      0.032839
     98 C32         0.7130   -2.4790    4.4460 c3        1 MOL     -0.219820
     99 C33         2.9980   -2.9060    3.5780 c3        1 MOL     -0.237008
    100 C34         0.5490   -0.9980    4.2190 c3        1 MOL      0.091789
    101 H42        -0.2770   -4.9870    2.3070 hn        1 MOL      0.323556
    102 H43         0.8030   -2.1990    1.8230 h1        1 MOL     -0.003182
    103 H44         1.4930   -4.3400    3.7580 hc        1 MOL      0.016049
    104 H45         1.0810   -2.5750    5.4730 hc        1 MOL      0.048040
    105 H46        -0.2980   -2.8870    4.4380 hc        1 MOL      0.048040
    106 H47         3.1560   -2.0220    2.9610 hc        1 MOL      0.046244
    107 H48         3.3470   -2.6090    4.5590 hc        1 MOL      0.046244
    108 H49         3.5680   -3.6310    3.0040 hc        1 MOL      0.046244
    109 H50         1.5770   -0.6310    4.1430 hc        1 MOL      0.001973
    110 H51         0.0390   -0.7640    3.2810 hc        1 MOL      0.001973
    111 H52         0.0080   -0.5270    5.0440 hc        1 MOL      0.001973
    112 N10         2.5660   -2.6620    0.1410 n         1 MOL     -0.088517
    113 C35         3.7990   -2.8250   -0.6540 c3        1 MOL     -0.043288
    114 C36         5.0860   -2.4470    0.0370 c         1 MOL      0.336444
    115 O17         5.0820   -1.8390    1.1190 o         1 MOL     -0.274457
    116 C37         3.7570   -1.9160   -1.9250 c3        1 MOL      0.323067
    117 C38         2.9280   -2.7020   -2.9830 c3        1 MOL     -0.677619
    118 O18         3.2280   -0.6470   -1.6090 oh        1 MOL     -0.630345
    119 H53         2.2300   -1.7160    0.1520 hn        1 MOL      0.029119
    120 H54         3.9310   -3.8300   -1.0330 h1        1 MOL      0.072010
    121 H55         4.7160   -1.7570   -2.4140 h1        1 MOL      0.015837
    122 H56         2.3000   -0.7690   -1.3970 ho        1 MOL      0.458156
    123 H57         2.9340   -2.1110   -3.8950 hc        1 MOL      0.180825
    124 H58         3.4410   -3.6580   -3.1250 hc        1 MOL      0.180825
    125 H59         1.9120   -2.9680   -2.6790 hc        1 MOL      0.180825
    126 N11         6.2510   -2.6240   -0.6980 n         1 MOL     -0.372290
    127 C39         7.5660   -2.0610   -0.1980 c3        1 MOL     -0.103134
    128 C40         7.5320   -0.5610    0.1130 c         1 MOL      0.289641
    129 O19         8.0560   -0.2640    1.1690 o         1 MOL     -0.476207
    130 C41         8.7220   -2.2860   -1.1560 c3        1 MOL      0.295447
    131 C42         8.9500   -3.7640   -1.3990 c3        1 MOL     -0.489242
    132 O20         8.4580   -1.6390   -2.3970 oh        1 MOL     -0.648511
    133 H60         6.2990   -3.2220   -1.5180 hn        1 MOL      0.274506
    134 H61         7.8400   -2.6460    0.6740 h1        1 MOL      0.142262
    135 H62         9.6580   -1.9290   -0.7310 h1        1 MOL      0.066501
    136 H63         9.1510   -1.9540   -2.9780 ho        1 MOL      0.391005
    137 H64         9.9460   -3.8160   -1.8390 hc        1 MOL      0.140908
    138 H65         8.9470   -4.3890   -0.5010 hc        1 MOL      0.140908
    139 H66         8.2060   -4.1570   -2.1030 hc        1 MOL      0.140908
    140 N12         6.9880    0.3110   -0.7130 n         1 MOL     -0.069334
    141 C43         6.9300    1.7320   -0.4950 c3        1 MOL     -0.036844
    142 C44         5.9610    2.1530    0.6850 c         1 MOL      0.359197
    143 O21         6.3150    3.0540    1.4220 o         1 MOL     -0.494935
    144 C45         6.6800    2.5220   -1.7570 c3        1 MOL     -0.152097
    145 C46         7.7280    2.2900   -2.8910 c3        1 MOL      0.120716
    146 C47         7.2110    2.6970   -4.2490 c3        1 MOL     -0.144600
    147 C48         8.3100    2.7440   -5.2520 c3        1 MOL     -0.057373
    148 N13         8.8880    1.4270   -5.6190 n4        1 MOL     -0.286460
    149 H67         6.9470   -0.0110   -1.6680 hn        1 MOL      0.218123
    150 H68         7.9570    1.9630   -0.2060 h1        1 MOL      0.078143
    151 H69         6.6830    3.5760   -1.5020 hc        1 MOL      0.073048
    152 H70         5.6830    2.1940   -2.0320 hc        1 MOL      0.073048
    153 H71         8.0510    1.2490   -2.8990 hc        1 MOL     -0.018578
    154 H72         8.6670    2.7750   -2.6200 hc        1 MOL     -0.018578
    155 H73         6.7310    3.6740   -4.2080 hc        1 MOL      0.083302
    156 H74         6.4070    2.0370   -4.5810 hc        1 MOL      0.083302
    157 H75         9.1490    3.2990   -4.8210 hx        1 MOL      0.124278
    158 H76         8.0150    3.3010   -6.1380 hx        1 MOL      0.124278
    159 H77         9.4670    1.4520   -6.4380 hn        1 MOL      0.294122
    160 H78         9.4000    1.0010   -4.8630 hn        1 MOL      0.294122
    161 H79         8.1660    0.7330   -5.7210 hn        1 MOL      0.294122
    162 N14         4.8550    1.4560    0.8960 n         1 MOL     -0.040794
    163 C49         3.9230    1.6090    2.0690 c3        1 MOL     -0.439112
    164 C50         4.5320    1.0960    3.3710 c         1 MOL      0.572723
    165 O22         4.3630    1.6410    4.4540 o         1 MOL     -0.562592
    166 C51         2.5440    0.9670    1.6970 c3        1 MOL      0.400615
    167 C52         1.8630    1.5810    0.5040 c3        1 MOL     -0.035012
    168 C53         0.7170    0.7810    0.0030 c         1 MOL      0.690914
    169 O23         0.7770   -0.4310   -0.3350 o         1 MOL     -0.678109
    170 O24        -0.3850    1.3050   -0.0170 o         1 MOL     -0.678109
    171 H80         4.5730    0.7500    0.2310 hn        1 MOL      0.113814
    172 H81         3.7980    2.6840    2.1890 h1        1 MOL      0.154737
    173 H82         1.8010    1.0190    2.4940 hc        1 MOL     -0.048496
    174 H83         2.7470   -0.0940    1.5120 hc        1 MOL     -0.048496
    175 H84         2.5640    1.7120   -0.3290 hc        1 MOL     -0.042737
    176 H85         1.4450    2.5430    0.7820 hc        1 MOL     -0.042737
    177 N15         5.2030   -0.0550    3.2820 n         1 MOL      0.006013
    178 C54         6.0360   -0.5800    4.3380 c3        1 MOL     -0.407836
    179 H86         6.4070   -1.5640    4.0510 h1        1 MOL      0.133804
    180 H87         6.8790    0.0910    4.5040 h1        1 MOL      0.133804
    181 H88         5.4520   -0.6650    5.2540 h1        1 MOL      0.133804
    182 H89         5.1650   -0.5980    2.4360 hn        1 MOL      0.057082
    183 Ca1        -1.7440   -0.7130   -1.2240 Ca        1 MOL      1.744602
    184 O25        -0.0020    0.2130   -3.2020 oh        1 MOL     -0.893460
    185 H90         0.7530    0.1230   -3.7860 ho        1 MOL      0.411433
    186 H91        -0.7070    0.5140   -3.7730 ho        1 MOL      0.411433
    187 O26        -0.6040   -3.1280   -2.0700 oh        1 MOL     -0.893460
    188 H92        -0.3920   -3.2120   -3.0050 ho        1 MOL      0.411433
    189 H93        -1.1800   -3.8670   -1.8930 ho        1 MOL      0.411433
@<TRIPOS>BOND
     1    1    2 1   
     2    1    4 1   
     3    1    5 1   
     4    1    6 1   
     5    2    3 2   
     6    2    7 1   
     7    7    8 1   
     8    7   15 1   
     9    8    9 1   
    10    8   11 1   
    11    8   16 1   
    12    9   10 2   
    13    9   19 1   
    14   11   12 1   
    15   11   17 1   
    16   11   18 1   
    17   12   13 1   
    18   12   14 1   
    19   19   20 1   
    20   19   28 1   
    21   20   21 1   
    22   20   23 1   
    23   20   29 1   
    24   21   22 2   
    25   21   41 1   
    26   23   24 1   
    27   23   30 1   
    28   23   31 1   
    29   24   25 1   
    30   24   32 1   
    31   24   33 1   
    32   25   26 1   
    33   25   34 1   
    34   25   35 1   
    35   26   27 1   
    36   26   36 1   
    37   26   37 1   
    38   27   38 1   
    39   27   39 1   
    40   27   40 1   
    41   41   42 1   
    42   41   49 1   
    43   42   43 1   
    44   42   45 1   
    45   42   50 1   
    46   43   44 2   
    47   43   53 1   
    48   45   46 1   
    49   45   51 1   
    50   45   52 1   
    51   46   47 1   
    52   46   48 1   
    53   53   54 1   
    54   53   57 1   
    55   54   55 1   
    56   54   58 1   
    57   54   59 1   
    58   55   56 2   
    59   55   60 1   
    60   60   61 1   
    61   60   68 1   
    62   61   62 1   
    63   61   64 1   
    64   61   69 1   
    65   62   63 2   
    66   62   72 1   
    67   64   65 1   
    68   64   70 1   
    69   64   71 1   
    70   65   66 1   
    71   65   67 1   
    72   72   73 1   
    73   72   76 1   
    74   73   74 1   
    75   73   77 1   
    76   73   78 1   
    77   74   75 2   
    78   74   79 1   
    79   79   80 1   
    80   79   86 1   
    81   80   81 1   
    82   80   83 1   
    83   80   87 1   
    84   81   82 2   
    85   81   93 1   
    86   83   84 1   
    87   83   85 1   
    88   83   88 1   
    89   84   90 1   
    90   84   91 1   
    91   84   92 1   
    92   85   89 1   
    93   93   94 1   
    94   93  101 1   
    95   94   95 1   
    96   94   97 1   
    97   94  102 1   
    98   95   96 2   
    99   95  112 1   
   100   97   98 1   
   101   97   99 1   
   102   97  103 1   
   103   98  100 1   
   104   98  104 1   
   105   98  105 1   
   106   99  106 1   
   107   99  107 1   
   108   99  108 1   
   109  100  109 1   
   110  100  110 1   
   111  100  111 1   
   112  112  113 1   
   113  112  119 1   
   114  113  114 1   
   115  113  116 1   
   116  113  120 1   
   117  114  115 2   
   118  114  126 1   
   119  116  117 1   
   120  116  118 1   
   121  116  121 1   
   122  117  123 1   
   123  117  124 1   
   124  117  125 1   
   125  118  122 1   
   126  126  127 1   
   127  126  133 1   
   128  127  128 1   
   129  127  130 1   
   130  127  134 1   
   131  128  129 2   
   132  128  140 1   
   133  130  131 1   
   134  130  132 1   
   135  130  135 1   
   136  131  137 1   
   137  131  138 1   
   138  131  139 1   
   139  132  136 1   
   140  140  141 1   
   141  140  149 1   
   142  141  142 1   
   143  141  144 1   
   144  141  150 1   
   145  142  143 2   
   146  142  162 1   
   147  144  145 1   
   148  144  151 1   
   149  144  152 1   
   150  145  146 1   
   151  145  153 1   
   152  145  154 1   
   153  146  147 1   
   154  146  155 1   
   155  146  156 1   
   156  147  148 1   
   157  147  157 1   
   158  147  158 1   
   159  148  159 1   
   160  148  160 1   
   161  148  161 1   
   162  162  163 1   
   163  162  171 1   
   164  163  164 1   
   165  163  166 1   
   166  163  172 1   
   167  164  165 2   
   168  164  177 1   
   169  166  167 1   
   170  166  173 1   
   171  166  174 1   
   172  167  168 1   
   173  167  175 1   
   174  167  176 1   
   175  168  169 1   
   176  168  170 1   
   177  177  178 1   
   178  177  182 1   
   179  178  179 1   
   180  178  180 1   
   181  178  181 1   
   182  184  185 1   
   183  184  186 1   
   184  187  188 1   
   185  187  189 1   
@<TRIPOS>SUBSTRUCTURE
     1 MOL         1 TEMP              0 ****  ****    0 ROOT
