@<TRIPOS>MOLECULE
MOL
  189   185     1     0     0
SMALL
resp


@<TRIPOS>ATOM
      1 C1         -0.0590    3.3290    4.8820 c3        1 MOL     -0.456355
      2 C2         -0.7010    3.0040    3.5150 c         1 MOL      0.709410
      3 O1         -0.2720    3.5320    2.4990 o         1 MOL     -0.599816
      4 H1          1.0010    3.0760    4.8540 hc        1 MOL      0.120053
      5 H2         -0.1740    4.3910    5.0940 hc        1 MOL      0.120053
      6 H3         -0.5500    2.7470    5.6630 hc        1 MOL      0.120053
      7 N1         -1.6700    2.1360    3.4770 n         1 MOL     -0.616933
      8 C3         -2.2970    1.7740    2.2590 c3        1 MOL      0.261642
      9 C4         -2.9180    3.0000    1.6120 c         1 MOL      0.455976
     10 O2         -3.9000    3.5740    2.0940 o         1 MOL     -0.595231
     11 C5         -3.4340    0.7630    2.4450 c3        1 MOL     -0.175619
     12 C6         -3.8620    0.0400    1.1440 c         1 MOL      0.794853
     13 O3         -4.7500   -0.8910    1.2450 o         1 MOL     -0.694314
     14 O4         -3.2660    0.3250    0.0340 o         1 MOL     -0.694314
     15 H4         -2.1110    1.7690    4.3060 hn        1 MOL      0.321822
     16 H5         -1.5340    1.3460    1.6160 h1        1 MOL     -0.025393
     17 H6         -4.2940    1.3150    2.8290 hc        1 MOL      0.024789
     18 H7         -3.1340    0.0430    3.2050 hc        1 MOL      0.024789
     19 N2         -2.4450    3.3550    0.3700 n         1 MOL      0.015801
     20 C7         -2.8550    4.5840   -0.3110 c3        1 MOL     -0.096651
     21 C8         -3.3730    4.4550   -1.7230 c         1 MOL      0.614364
     22 O5         -3.6000    5.4280   -2.4570 o         1 MOL     -0.568761
     23 C9         -1.7750    5.5970   -0.0720 c3        1 MOL     -0.138552
     24 C10        -2.3180    6.9100    0.4840 c3        1 MOL      0.073781
     25 C11        -3.0810    6.9110    1.8220 c3        1 MOL     -0.024712
     26 C12        -4.5740    7.2390    1.7530 c3        1 MOL      0.096816
     27 N3         -4.9790    7.8210    3.0880 n4        1 MOL     -0.507705
     28 H8         -1.6420    2.8380    0.0220 hn        1 MOL      0.172637
     29 H9         -3.8020    4.8850    0.1490 h1        1 MOL      0.025246
     30 H10        -1.2770    5.7500   -1.0280 hc        1 MOL      0.079025
     31 H11        -1.0280    5.1840    0.6110 hc        1 MOL      0.079025
     32 H12        -2.9830    7.3410   -0.2640 hc        1 MOL     -0.019470
     33 H13        -1.4840    7.6090    0.5740 hc        1 MOL     -0.019470
     34 H14        -2.5950    7.6160    2.4910 hc        1 MOL      0.025051
     35 H15        -3.0100    5.9100    2.2590 hc        1 MOL      0.025051
     36 H16        -5.2140    6.4350    1.3900 hx        1 MOL      0.086191
     37 H17        -4.6580    7.9920    0.9650 hx        1 MOL      0.086191
     38 H18        -5.9590    8.0480    3.1250 hn        1 MOL      0.356783
     39 H19        -4.9180    7.1150    3.8080 hn        1 MOL      0.356783
     40 H20        -4.4930    8.6650    3.3460 hn        1 MOL      0.356783
     41 N4         -3.6970    3.2220   -2.1790 n         1 MOL     -0.617671
     42 C13        -4.5180    2.9520   -3.4460 c3        1 MOL      0.391216
     43 C14        -5.7120    2.0110   -3.0600 c         1 MOL      0.069613
     44 O6         -6.6620    1.7740   -3.8500 o         1 MOL     -0.442157
     45 C15        -3.8160    2.2170   -4.6040 c3        1 MOL     -0.383606
     46 C16        -2.7010    1.2880   -4.0480 c         1 MOL      0.899531
     47 O7         -2.8600    0.6830   -2.9730 o         1 MOL     -0.720594
     48 O8         -1.5740    1.3160   -4.6360 o         1 MOL     -0.720594
     49 H21        -3.3570    2.4370   -1.6450 hn        1 MOL      0.336613
     50 H22        -4.9320    3.8960   -3.8210 h1        1 MOL      0.027515
     51 H23        -3.2750    2.9610   -5.1910 hc        1 MOL      0.092991
     52 H24        -4.5000    1.6340   -5.2220 hc        1 MOL      0.092991
     53 N5         -5.6540    1.3520   -1.8820 n         1 MOL      0.395472
     54 C17        -6.7790    0.8200   -1.2850 c3        1 MOL     -0.266039
     55 C18        -7.0230   -0.5920   -1.8650 c         1 MOL      0.614361
     56 O9         -7.8530   -0.7550   -2.7610 o         1 MOL     -0.550581
     57 H25        -4.8500    1.4470   -1.2820 hn        1 MOL     -0.153109
     58 H26        -7.6900    1.4030   -1.4230 h1        1 MOL      0.058624
     59 H27        -6.5880    0.7570   -0.2190 h1        1 MOL      0.058624
     60 N6         -6.1820   -1.5520   -1.5220 n         1 MOL     -0.502452
     61 C19        -6.1320   -2.9930   -2.0040 c3        1 MOL      0.153950
     62 C20        -5.9440   -3.8990   -0.7430 c         1 MOL      0.385913
     63 O10        -5.6560   -5.1030   -0.8810 o         1 MOL     -0.502041
     64 C21        -5.0230   -3.2420   -3.0500 c3        1 MOL     -0.339616
     65 C22        -3.6430   -2.8440   -2.6250 c         1 MOL      0.896912
     66 O11        -2.8810   -2.2300   -3.3950 o         1 MOL     -0.801671
     67 O12        -3.4650   -2.8890   -1.3850 o         1 MOL     -0.801671
     68 H28        -5.3960   -1.2490   -0.9650 hn        1 MOL      0.244971
     69 H29        -7.0760   -3.2310   -2.5010 h1        1 MOL      0.072102
     70 H30        -5.3660   -2.6410   -3.8870 hc        1 MOL      0.096292
     71 H31        -4.9680   -4.2950   -3.3470 hc        1 MOL      0.096292
     72 N7         -6.2390   -3.4210    0.4770 n         1 MOL     -0.290332
     73 C23        -6.2350   -4.1370    1.7500 c3        1 MOL     -0.160538
     74 C24        -4.8310   -4.7200    2.0960 c         1 MOL      0.548704
     75 O13        -4.7110   -5.7320    2.7830 o         1 MOL     -0.565579
     76 H32        -6.3830   -2.4190    0.5170 hn        1 MOL      0.248505
     77 H33        -7.0240   -4.8860    1.7820 h1        1 MOL      0.109962
     78 H34        -6.4070   -3.3280    2.4640 h1        1 MOL      0.109962
     79 N8         -3.7300   -4.0920    1.6520 n         1 MOL     -0.346582
     80 C25        -2.3090   -4.4450    1.8690 c3        1 MOL     -0.138385
     81 C26        -1.4210   -3.2400    1.7120 c         1 MOL      0.813573
     82 O14        -1.6580   -2.1790    1.0930 o         1 MOL     -0.738695
     83 C27        -1.8470   -5.6150    0.9720 c3        1 MOL      0.441057
     84 C28        -2.1640   -6.9890    1.4850 c3        1 MOL     -0.558718
     85 O15        -2.2750   -5.4750   -0.3950 oh        1 MOL     -0.616826
     86 H35        -3.8530   -3.2520    1.0970 hn        1 MOL      0.269548
     87 H36        -2.2030   -4.7680    2.9040 h1        1 MOL      0.087618
     88 H37        -0.7740   -5.4840    1.0280 h1        1 MOL     -0.005057
     89 H38        -3.2070   -5.2640   -0.4580 ho        1 MOL      0.416016
     90 H39        -1.9270   -7.2000    2.5330 hc        1 MOL      0.148553
     91 H40        -3.2340   -7.1180    1.3430 hc        1 MOL      0.148553
     92 H41        -1.6850   -7.7270    0.8430 hc        1 MOL      0.148553
     93 N9         -0.2960   -3.3780    2.4090 n         1 MOL     -0.608245
     94 C29         0.7130   -2.4010    2.5240 c3        1 MOL      0.047544
     95 C30         2.0380   -2.8910    1.9070 c         1 MOL      0.485294
     96 O16         2.6540   -3.8900    2.2860 o         1 MOL     -0.549043
     97 C31         1.0160   -2.0660    4.0100 c3        1 MOL      0.182788
     98 C32        -0.2260   -1.3860    4.5810 c3        1 MOL      0.262250
     99 C33         2.1980   -1.1680    4.1060 c3        1 MOL     -0.369416
    100 C34        -0.1570   -1.2160    6.1140 c3        1 MOL     -0.218813
    101 H42        -0.1650   -4.1500    3.0480 hn        1 MOL      0.288457
    102 H43         0.4110   -1.4770    2.0320 h1        1 MOL      0.124948
    103 H44         1.1170   -2.9950    4.5550 hc        1 MOL     -0.003837
    104 H45        -1.0750   -2.0410    4.4280 hc        1 MOL     -0.055997
    105 H46        -0.4850   -0.4960    4.0040 hc        1 MOL     -0.055997
    106 H47         3.0560   -1.6300    3.6270 hc        1 MOL      0.074310
    107 H48         1.9410   -0.2650    3.5640 hc        1 MOL      0.074310
    108 H49         2.4470   -0.8920    5.1350 hc        1 MOL      0.074310
    109 H50         0.5810   -0.4920    6.4700 hc        1 MOL      0.033792
    110 H51        -1.1140   -0.7570    6.3510 hc        1 MOL      0.033792
    111 H52        -0.0440   -2.1870    6.5940 hc        1 MOL      0.033792
    112 N10         2.4740   -2.2000    0.8150 n         1 MOL     -0.084968
    113 C35         3.6870   -2.5180    0.0770 c3        1 MOL     -0.265315
    114 C36         4.9110   -1.9570    0.7170 c         1 MOL      0.544372
    115 O17         4.8720   -1.1520    1.6100 o         1 MOL     -0.411211
    116 C37         3.5820   -1.8620   -1.3580 c3        1 MOL      0.160511
    117 C38         2.5200   -2.5000   -2.2010 c3        1 MOL     -0.279542
    118 O18         3.1570   -0.5010   -1.2660 oh        1 MOL     -0.478645
    119 H53         2.0220   -1.3550    0.4990 hn        1 MOL      0.111211
    120 H54         3.7360   -3.5970   -0.0400 h1        1 MOL      0.147003
    121 H55         4.4990   -1.8610   -1.9410 h1        1 MOL      0.054482
    122 H56         2.2440   -0.4520   -0.9850 ho        1 MOL      0.298593
    123 H57         2.6180   -3.5770   -2.0460 hc        1 MOL      0.084310
    124 H58         1.5320   -2.2660   -1.8340 hc        1 MOL      0.084310
    125 H59         2.6400   -2.3630   -3.2830 hc        1 MOL      0.084310
    126 N11         6.1180   -2.2550    0.1940 n         1 MOL     -0.479626
    127 C39         7.4460   -1.5740    0.5500 c3        1 MOL      0.097816
    128 C40         7.3840   -0.0540    0.3450 c         1 MOL      0.114455
    129 O19         7.5680    0.7310    1.2460 o         1 MOL     -0.415656
    130 C41         8.6810   -2.1830   -0.1010 c3        1 MOL      0.177091
    131 C42         9.0780   -3.5530    0.5060 c3        1 MOL     -0.526408
    132 O20         8.4870   -2.3190   -1.5280 oh        1 MOL     -0.545899
    133 H60         6.1520   -3.0850   -0.3690 hn        1 MOL      0.284978
    134 H61         7.5710   -1.7630    1.6150 h1        1 MOL      0.107218
    135 H62         9.4870   -1.4950    0.1380 h1        1 MOL      0.041864
    136 H63         9.3950   -2.3770   -1.8220 ho        1 MOL      0.359207
    137 H64         8.1530   -4.1360    0.4780 hc        1 MOL      0.159274
    138 H65         9.8110   -4.0640   -0.1160 hc        1 MOL      0.159274
    139 H66         9.4540   -3.5390    1.5350 hc        1 MOL      0.159274
    140 N12         6.9000    0.3350   -0.8670 n         1 MOL      0.228490
    141 C43         6.8090    1.7280   -1.3370 c3        1 MOL     -0.020657
    142 C44         5.8480    2.6010   -0.6280 c         1 MOL      0.350230
    143 O21         6.2030    3.7730   -0.5200 o         1 MOL     -0.513883
    144 C45         6.4480    1.8420   -2.8500 c3        1 MOL     -0.318739
    145 C46         7.1910    0.8460   -3.7160 c3        1 MOL      0.283781
    146 C47         8.6800    0.8510   -3.5230 c3        1 MOL     -0.021849
    147 C48         9.3660    0.0520   -4.6200 c3        1 MOL      0.036944
    148 N13        10.8510    0.1360   -4.4060 n4        1 MOL     -0.180331
    149 H67         6.8150   -0.3950   -1.5560 hn        1 MOL      0.118863
    150 H68         7.8020    2.1770   -1.3170 h1        1 MOL      0.030255
    151 H69         6.7060    2.8440   -3.1890 hc        1 MOL      0.133210
    152 H70         5.3870    1.6530   -3.0290 hc        1 MOL      0.133210
    153 H71         6.9280    1.1010   -4.7460 hc        1 MOL     -0.051393
    154 H72         6.8730   -0.1880   -3.5310 hc        1 MOL     -0.051393
    155 H73         8.9720    0.4070   -2.5730 hc        1 MOL     -0.001566
    156 H74         8.9930    1.8950   -3.6140 hc        1 MOL     -0.001566
    157 H75         9.1150    0.3350   -5.6380 hx        1 MOL      0.055402
    158 H76         9.0980   -0.9870   -4.4000 hx        1 MOL      0.055402
    159 H77        11.3640   -0.1780   -5.2200 hn        1 MOL      0.252742
    160 H78        11.0840    1.0670   -4.1240 hn        1 MOL      0.252742
    161 H79        11.0790   -0.4930   -3.6500 hn        1 MOL      0.252742
    162 N14         4.7760    2.0700   -0.0460 n         1 MOL      0.058303
    163 C49         3.8220    2.6830    0.9320 c3        1 MOL     -0.208092
    164 C50         4.3600    2.7620    2.3490 c         1 MOL      0.561207
    165 O22         4.2110    3.8440    2.9610 o         1 MOL     -0.573989
    166 C51         2.4330    1.9700    0.9590 c3        1 MOL      0.046262
    167 C52         1.5520    2.3150   -0.2820 c3        1 MOL      0.109499
    168 C53         0.4450    1.2580   -0.3870 c         1 MOL      0.748172
    169 O23         0.6450    0.0380   -0.2030 o         1 MOL     -0.728672
    170 O24        -0.6050    1.6300   -0.8860 o         1 MOL     -0.728672
    171 H80         4.7010    1.0670   -0.0580 hn        1 MOL     -0.160132
    172 H81         3.6910    3.7170    0.6190 h1        1 MOL      0.119726
    173 H82         1.9310    2.1830    1.9010 hc        1 MOL      0.005989
    174 H83         2.5140    0.8970    1.0880 hc        1 MOL      0.005989
    175 H84         2.1540    2.3240   -1.1950 hc        1 MOL     -0.034619
    176 H85         1.0360    3.2700   -0.1900 hc        1 MOL     -0.034619
    177 N15         5.0350    1.7490    2.8480 n         1 MOL     -0.252597
    178 C54         5.8420    1.8770    4.1420 c3        1 MOL     -0.101706
    179 H86         6.8680    1.5570    3.9630 h1        1 MOL      0.073623
    180 H87         5.8380    2.9160    4.4720 h1        1 MOL      0.073623
    181 H88         5.3950    1.2490    4.9120 h1        1 MOL      0.073623
    182 H89         5.2010    0.9320    2.2710 hn        1 MOL      0.230853
    183 Ca1        -1.5110   -0.9050   -1.3460 Ca        1 MOL      1.797280
    184 O25         0.1650   -0.3440   -3.5350 oh        1 MOL     -0.872805
    185 H90         0.9990   -0.2700   -3.9990 ho        1 MOL      0.405914
    186 H91        -0.4750    0.0680   -4.1220 ho        1 MOL      0.405914
    187 O26        -0.7360   -3.6730   -1.8040 oh        1 MOL     -0.872805
    188 H92        -1.1530   -4.3760   -1.3100 ho        1 MOL      0.405914
    189 H93        -0.7860   -3.9520   -2.7220 ho        1 MOL      0.405914
@<TRIPOS>BOND
     1    1    2 1   
     2    1    4 1   
     3    1    5 1   
     4    1    6 1   
     5    2    3 2   
     6    2    7 1   
     7    7    8 1   
     8    7   15 1   
     9    8    9 1   
    10    8   11 1   
    11    8   16 1   
    12    9   10 2   
    13    9   19 1   
    14   11   12 1   
    15   11   17 1   
    16   11   18 1   
    17   12   13 1   
    18   12   14 1   
    19   19   20 1   
    20   19   28 1   
    21   20   21 1   
    22   20   23 1   
    23   20   29 1   
    24   21   22 2   
    25   21   41 1   
    26   23   24 1   
    27   23   30 1   
    28   23   31 1   
    29   24   25 1   
    30   24   32 1   
    31   24   33 1   
    32   25   26 1   
    33   25   34 1   
    34   25   35 1   
    35   26   27 1   
    36   26   36 1   
    37   26   37 1   
    38   27   38 1   
    39   27   39 1   
    40   27   40 1   
    41   41   42 1   
    42   41   49 1   
    43   42   43 1   
    44   42   45 1   
    45   42   50 1   
    46   43   44 2   
    47   43   53 1   
    48   45   46 1   
    49   45   51 1   
    50   45   52 1   
    51   46   47 1   
    52   46   48 1   
    53   53   54 1   
    54   53   57 1   
    55   54   55 1   
    56   54   58 1   
    57   54   59 1   
    58   55   56 2   
    59   55   60 1   
    60   60   61 1   
    61   60   68 1   
    62   61   62 1   
    63   61   64 1   
    64   61   69 1   
    65   62   63 2   
    66   62   72 1   
    67   64   65 1   
    68   64   70 1   
    69   64   71 1   
    70   65   66 1   
    71   65   67 1   
    72   72   73 1   
    73   72   76 1   
    74   73   74 1   
    75   73   77 1   
    76   73   78 1   
    77   74   75 2   
    78   74   79 1   
    79   79   80 1   
    80   79   86 1   
    81   80   81 1   
    82   80   83 1   
    83   80   87 1   
    84   81   82 2   
    85   81   93 1   
    86   83   84 1   
    87   83   85 1   
    88   83   88 1   
    89   84   90 1   
    90   84   91 1   
    91   84   92 1   
    92   85   89 1   
    93   93   94 1   
    94   93  101 1   
    95   94   95 1   
    96   94   97 1   
    97   94  102 1   
    98   95   96 2   
    99   95  112 1   
   100   97   98 1   
   101   97   99 1   
   102   97  103 1   
   103   98  100 1   
   104   98  104 1   
   105   98  105 1   
   106   99  106 1   
   107   99  107 1   
   108   99  108 1   
   109  100  109 1   
   110  100  110 1   
   111  100  111 1   
   112  112  113 1   
   113  112  119 1   
   114  113  114 1   
   115  113  116 1   
   116  113  120 1   
   117  114  115 2   
   118  114  126 1   
   119  116  117 1   
   120  116  118 1   
   121  116  121 1   
   122  117  123 1   
   123  117  124 1   
   124  117  125 1   
   125  118  122 1   
   126  126  127 1   
   127  126  133 1   
   128  127  128 1   
   129  127  130 1   
   130  127  134 1   
   131  128  129 2   
   132  128  140 1   
   133  130  131 1   
   134  130  132 1   
   135  130  135 1   
   136  131  137 1   
   137  131  138 1   
   138  131  139 1   
   139  132  136 1   
   140  140  141 1   
   141  140  149 1   
   142  141  142 1   
   143  141  144 1   
   144  141  150 1   
   145  142  143 2   
   146  142  162 1   
   147  144  145 1   
   148  144  151 1   
   149  144  152 1   
   150  145  146 1   
   151  145  153 1   
   152  145  154 1   
   153  146  147 1   
   154  146  155 1   
   155  146  156 1   
   156  147  148 1   
   157  147  157 1   
   158  147  158 1   
   159  148  159 1   
   160  148  160 1   
   161  148  161 1   
   162  162  163 1   
   163  162  171 1   
   164  163  164 1   
   165  163  166 1   
   166  163  172 1   
   167  164  165 2   
   168  164  177 1   
   169  166  167 1   
   170  166  173 1   
   171  166  174 1   
   172  167  168 1   
   173  167  175 1   
   174  167  176 1   
   175  168  169 1   
   176  168  170 1   
   177  177  178 1   
   178  177  182 1   
   179  178  179 1   
   180  178  180 1   
   181  178  181 1   
   182  184  185 1   
   183  184  186 1   
   184  187  188 1   
   185  187  189 1   
@<TRIPOS>SUBSTRUCTURE
     1 MOL         1 TEMP              0 ****  ****    0 ROOT
