@<TRIPOS>MOLECULE
MOL
  175   173     1     0     0
SMALL
resp


@<TRIPOS>ATOM
      1 C1         -0.0750   -5.7220    5.1360 c3        1 MOL     -0.345182
      2 C2          0.3130   -5.1490    3.7800 c         1 MOL      0.812868
      3 O1         -0.3270   -5.4770    2.8260 o         1 MOL     -0.577547
      4 H1          0.7460   -6.3250    5.5230 hc        1 MOL      0.073026
      5 H2         -0.2840   -4.9080    5.8290 hc        1 MOL      0.073026
      6 H3         -0.9640   -6.3440    5.0270 hc        1 MOL      0.073026
      7 N1          1.3710   -4.2930    3.7360 n         1 MOL     -0.754652
      8 C3          2.0200   -3.6420    2.6210 c3        1 MOL      0.386953
      9 C4          2.4830   -4.6270    1.5360 c         1 MOL      0.520641
     10 O2          3.2240   -5.5820    1.8110 o         1 MOL     -0.590106
     11 C5          3.1440   -2.7850    3.1980 c3        1 MOL     -0.534226
     12 C6          3.9430   -2.0760    2.0900 c         1 MOL      0.831910
     13 O3          5.1340   -1.6900    2.3340 o         1 MOL     -0.684316
     14 O4          3.4230   -1.7980    0.9620 o         1 MOL     -0.684316
     15 H4          1.8630   -4.2350    4.6210 hn        1 MOL      0.335096
     16 H5          1.3620   -2.9130    2.1510 h1        1 MOL      0.030645
     17 H6          3.8180   -3.4350    3.7720 hc        1 MOL      0.114427
     18 H7          2.7900   -2.0710    3.9400 hc        1 MOL      0.114427
     19 N2          1.8720   -4.4710    0.3840 n         1 MOL     -0.399844
     20 C7          2.0140   -5.4180   -0.7470 c3        1 MOL      0.144838
     21 C8          3.2550   -5.1090   -1.6470 c         1 MOL      0.402981
     22 O5          3.7200   -5.9860   -2.3830 o         1 MOL     -0.557851
     23 C9          0.7920   -5.3410   -1.6370 c3        1 MOL     -0.248278
     24 H8          1.2980   -3.6570    0.2040 hn        1 MOL      0.287590
     25 H9          2.1090   -6.4140   -0.3090 h1        1 MOL      0.069256
     26 H10         0.7770   -4.3770   -2.1390 hc        1 MOL      0.067623
     27 H11         0.9300   -6.2200   -2.2690 hc        1 MOL      0.067623
     28 H12        -0.1760   -5.4710   -1.1520 hc        1 MOL      0.067623
     29 N3          3.8430   -3.8900   -1.6580 n         1 MOL     -0.298866
     30 C10         4.7870   -3.4950   -2.6780 c3        1 MOL      0.175410
     31 C11         6.1150   -2.9110   -2.1440 c         1 MOL      0.345355
     32 O6          7.0890   -3.0040   -2.8780 o         1 MOL     -0.540937
     33 C12         4.0730   -2.4320   -3.5930 c3        1 MOL     -0.013276
     34 C13         3.0570   -1.4610   -2.9970 c         1 MOL      0.597721
     35 O7          3.3990   -0.8260   -1.9950 o         1 MOL     -0.630414
     36 O8          2.0770   -1.1420   -3.7170 o         1 MOL     -0.630414
     37 H13         3.5090   -3.1920   -1.0040 hn        1 MOL      0.191398
     38 H14         5.0930   -4.3640   -3.2590 h1        1 MOL      0.062506
     39 H15         3.5450   -3.0110   -4.3580 hc        1 MOL     -0.021495
     40 H16         4.8870   -1.9350   -4.1240 hc        1 MOL     -0.021495
     41 N4          6.1630   -2.3350   -0.9040 n         1 MOL     -0.083961
     42 C14         7.3680   -1.6930   -0.2970 c3        1 MOL     -0.384096
     43 C15         7.4350   -0.1630   -0.6800 c         1 MOL      0.615998
     44 O9          8.4070    0.5070   -0.3440 o         1 MOL     -0.606613
     45 H17         5.2360   -2.1320   -0.5400 hn        1 MOL     -0.007056
     46 H18         8.2800   -2.0860   -0.7470 h1        1 MOL      0.175114
     47 H19         7.2440   -1.6850    0.7860 h1        1 MOL      0.175114
     48 N5          6.4220    0.3800   -1.3960 n         1 MOL     -0.357118
     49 C16         6.4490    1.6820   -2.0500 c3        1 MOL     -0.005633
     50 C17         6.5710    2.9350   -1.2300 c         1 MOL      0.405961
     51 O10         6.7170    4.0080   -1.8570 o         1 MOL     -0.568835
     52 C18         5.3040    1.7470   -2.9930 c3        1 MOL     -0.158882
     53 C19         4.0310    2.5010   -2.4380 c         1 MOL      0.693546
     54 N6          3.6230    3.5350   -3.1300 n         1 MOL     -0.711364
     55 O11         3.4270    2.1890   -1.4400 o         1 MOL     -0.647547
     56 H20         5.6040   -0.2080   -1.5040 hn        1 MOL      0.284381
     57 H21         7.3700    1.6770   -2.6280 h1        1 MOL      0.114106
     58 H22         4.9420    0.7430   -3.2230 hc        1 MOL      0.057880
     59 H23         5.6340    2.2260   -3.9140 hc        1 MOL      0.057880
     60 H24         3.9040    3.6380   -4.0950 hn        1 MOL      0.344611
     61 H25         2.7910    4.0320   -2.8420 hn        1 MOL      0.344611
     62 N7          6.2270    3.0060    0.0420 n         1 MOL     -0.146242
     63 C20         6.1780    4.1560    0.9420 c3        1 MOL     -0.134514
     64 C21         4.7850    4.7000    1.3740 c         1 MOL      0.636328
     65 O12         4.7270    5.4460    2.3470 o         1 MOL     -0.616175
     66 H26         5.9740    2.1160    0.4440 hn        1 MOL      0.195561
     67 H27         6.6520    4.9960    0.4500 h1        1 MOL      0.087099
     68 H28         6.7280    3.9650    1.8700 h1        1 MOL      0.087099
     69 N8          3.6420    4.4000    0.7350 n         1 MOL     -0.519802
     70 C22         2.2410    4.8370    1.1640 c3        1 MOL      0.061881
     71 C23         1.2950    3.6930    1.1550 c         1 MOL      0.652762
     72 O13         1.4090    2.6800    0.4330 o         1 MOL     -0.532679
     73 C24         1.6250    6.0230    0.3670 c3        1 MOL      0.388073
     74 C25         2.1640    7.3470    0.7880 c3        1 MOL     -0.434593
     75 O14         2.0250    6.0170   -1.0690 oh        1 MOL     -0.612637
     76 H29         3.6670    3.8250   -0.0890 hn        1 MOL      0.319190
     77 H30         2.3070    5.2810    2.1590 h1        1 MOL      0.077691
     78 H31         0.5460    6.0560    0.5230 h1        1 MOL      0.008279
     79 H32         1.4420    5.4080   -1.5250 ho        1 MOL      0.381772
     80 H33         2.0080    7.4720    1.8630 hc        1 MOL      0.114731
     81 H34         3.2170    7.4360    0.5120 hc        1 MOL      0.114731
     82 H35         1.7130    8.2040    0.2920 hc        1 MOL      0.114731
     83 N9          0.2700    3.7790    2.0980 n         1 MOL     -0.855049
     84 C26        -0.9180    2.8190    2.0770 c3        1 MOL      0.039751
     85 C27        -1.6570    3.1680    0.8190 c         1 MOL      0.461619
     86 O15        -1.8420    4.3240    0.3650 o         1 MOL     -0.550307
     87 C28        -1.8690    3.0240    3.2810 c3        1 MOL      0.312119
     88 C29        -1.1350    3.1540    4.6560 c3        1 MOL      0.074796
     89 C30        -2.9590    1.8780    3.5160 c3        1 MOL     -0.633457
     90 C31        -1.9190    3.8760    5.7790 c3        1 MOL     -0.006320
     91 H36         0.2570    4.6040    2.6710 hn        1 MOL      0.376162
     92 H37        -0.5690    1.7930    2.0260 h1        1 MOL      0.126379
     93 H38        -2.4510    3.9260    3.1260 hc        1 MOL     -0.025876
     94 H39        -0.3640    3.9170    4.5320 hc        1 MOL     -0.034326
     95 H40        -0.6300    2.2640    5.0260 hc        1 MOL     -0.034326
     96 H41        -3.4570    1.7300    2.5570 hc        1 MOL      0.150362
     97 H42        -2.3570    0.9640    3.5750 hc        1 MOL      0.150362
     98 H43        -3.5990    2.0670    4.3740 hc        1 MOL      0.150362
     99 H44        -1.4510    3.9140    6.7540 hc        1 MOL     -0.007594
    100 H45        -2.0650    4.8910    5.4260 hc        1 MOL     -0.007594
    101 H46        -2.9010    3.4530    5.9600 hc        1 MOL     -0.007594
    102 N10        -2.0270    2.0250    0.1530 n         1 MOL     -0.003042
    103 C32        -2.8930    1.9060   -1.0270 c3        1 MOL     -0.037048
    104 C33        -4.3360    1.4600   -0.7160 c         1 MOL      0.268000
    105 O16        -4.5810    0.8340    0.3650 o         1 MOL     -0.268493
    106 C34        -2.1370    0.9500   -1.8930 c3        1 MOL     -0.275040
    107 C35        -0.6750    1.3730   -2.2600 c         1 MOL      0.779269
    108 O17         0.3070    1.0070   -1.5660 o         1 MOL     -0.701152
    109 O18        -0.6000    1.9510   -3.3700 o         1 MOL     -0.701152
    110 H47        -1.8800    1.1380    0.6010 hn        1 MOL     -0.078028
    111 H48        -2.8860    2.9160   -1.4550 h1        1 MOL      0.068574
    112 H49        -2.6750    0.6850   -2.7970 hc        1 MOL      0.105427
    113 H50        -2.0800    0.0720   -1.2560 hc        1 MOL      0.105427
    114 N11        -5.3480    1.7620   -1.5080 n         1 MOL     -0.429631
    115 C36        -6.6810    1.3580   -1.2400 c3        1 MOL      0.305557
    116 C37        -6.8030   -0.2070   -1.1490 c         1 MOL      0.331038
    117 O19        -7.5300   -0.6810   -0.2690 o         1 MOL     -0.479422
    118 C38        -7.5810    2.0920   -2.2820 c3        1 MOL     -0.229612
    119 C39        -9.0200    1.7680   -2.1330 ca        1 MOL      0.181868
    120 C40        -9.6670    0.9030   -3.0410 ca        1 MOL     -0.235525
    121 C41        -9.7010    2.2620   -1.0530 ca        1 MOL     -0.235525
    122 C42       -10.9400    0.4120   -2.6740 ca        1 MOL     -0.084204
    123 C43       -10.9650    1.8190   -0.6690 ca        1 MOL     -0.084204
    124 C44       -11.5650    0.8940   -1.5120 ca        1 MOL     -0.111007
    125 H51        -5.1010    2.2630   -2.3480 hn        1 MOL      0.301141
    126 H52        -7.0060    1.7660   -0.2840 h1        1 MOL      0.039002
    127 H53        -7.1770    1.7490   -3.2360 hc        1 MOL      0.066494
    128 H54        -7.3790    3.1630   -2.2560 hc        1 MOL      0.066494
    129 H55        -9.0880    0.5190   -3.8660 ha        1 MOL      0.132779
    130 H56        -9.2090    2.9970   -0.4360 ha        1 MOL      0.132779
    131 H57       -11.3120   -0.4080   -3.2750 ha        1 MOL      0.116143
    132 H58       -11.4260    2.1570    0.2510 ha        1 MOL      0.116143
    133 H59       -12.5290    0.4810   -1.2770 ha        1 MOL      0.090059
    134 N12        -6.1300   -1.0600   -1.9230 n         1 MOL     -0.115588
    135 C45        -5.9000   -2.4840   -1.6930 c3        1 MOL      0.073522
    136 C46        -5.3360   -2.8070   -0.3180 c         1 MOL      0.209479
    137 O20        -5.6850   -3.8600    0.2110 o         1 MOL     -0.486732
    138 C47        -4.9770   -3.0390   -2.7970 c3        1 MOL     -0.022505
    139 C48        -4.9090   -1.9550   -3.8320 c3        1 MOL      0.020889
    140 C49        -5.4860   -0.7390   -3.1650 c3        1 MOL     -0.027411
    141 H60        -6.8230   -3.0430   -1.7760 h1        1 MOL      0.048789
    142 H61        -3.9600   -3.0270   -2.4170 hc        1 MOL      0.038630
    143 H62        -5.2030   -4.0160   -3.2230 hc        1 MOL      0.038630
    144 H63        -3.8840   -1.7840   -4.1810 hc        1 MOL      0.014867
    145 H64        -5.4670   -2.2180   -4.7260 hc        1 MOL      0.014867
    146 H65        -4.6660   -0.0390   -3.0180 h1        1 MOL      0.010234
    147 H66        -6.1110   -0.1190   -3.8060 h1        1 MOL      0.010234
    148 N13        -4.4870   -1.9720    0.2780 n         1 MOL      0.020107
    149 C50        -3.9090   -2.2860    1.6490 c3        1 MOL     -0.164372
    150 C51        -4.8760   -1.7490    2.6900 c         1 MOL      0.490370
    151 O21        -5.0490   -2.4500    3.6820 o         1 MOL     -0.575533
    152 C52        -2.4830   -1.6540    1.7970 c3        1 MOL      0.003835
    153 C53        -1.5080   -2.2290    0.7700 c3        1 MOL      0.089908
    154 C54        -0.2450   -1.5090    0.5640 c         1 MOL      0.514180
    155 O22         0.5630   -1.9290   -0.3180 o         1 MOL     -0.665098
    156 O23         0.0830   -0.5520    1.3170 o         1 MOL     -0.665098
    157 H67        -4.1140   -1.1310   -0.1460 hn        1 MOL      0.139095
    158 H68        -3.9010   -3.3560    1.8610 h1        1 MOL      0.132167
    159 H69        -2.0890   -1.8480    2.7940 hc        1 MOL      0.003444
    160 H70        -2.5560   -0.5600    1.7510 hc        1 MOL      0.003444
    161 H71        -2.0200   -2.2410   -0.1960 hc        1 MOL     -0.012767
    162 H72        -1.2500   -3.2440    1.0480 hc        1 MOL     -0.012767
    163 N14        -5.6070   -0.6550    2.4250 n         1 MOL      0.000679
    164 C55        -6.6760   -0.1470    3.2400 c3        1 MOL     -0.250134
    165 H73        -6.4990   -0.4180    4.2810 h1        1 MOL      0.082553
    166 H74        -6.7170    0.9390    3.1500 h1        1 MOL      0.082553
    167 H75        -7.6210   -0.5760    2.9090 h1        1 MOL      0.082553
    168 H76        -5.3780   -0.1690    1.5630 hn        1 MOL     -0.001629
    169 Ca1         2.1810    0.1670    0.0380 Ca        1 MOL      1.732276
    170 O24         2.0020    0.6160    2.7090 oh        1 MOL     -0.872459
    171 H77         1.0720    0.4480    2.8660 ho        1 MOL      0.415133
    172 H78         2.2970    1.0810    3.4950 ho        1 MOL      0.415133
    173 O25         4.8110    0.7580    1.2320 oh        1 MOL     -0.872459
    174 H79         5.0620    1.2510    2.0030 ho        1 MOL      0.415133
    175 H80         4.8820   -0.1560    1.4930 ho        1 MOL      0.415133
@<TRIPOS>BOND
     1    1    2 1   
     2    1    4 1   
     3    1    5 1   
     4    1    6 1   
     5    2    3 2   
     6    2    7 1   
     7    7    8 1   
     8    7   15 1   
     9    8    9 1   
    10    8   11 1   
    11    8   16 1   
    12    9   10 2   
    13    9   19 1   
    14   11   12 1   
    15   11   17 1   
    16   11   18 1   
    17   12   13 1   
    18   12   14 1   
    19   19   20 1   
    20   19   24 1   
    21   20   21 1   
    22   20   23 1   
    23   20   25 1   
    24   21   22 2   
    25   21   29 1   
    26   23   26 1   
    27   23   27 1   
    28   23   28 1   
    29   29   30 1   
    30   29   37 1   
    31   30   31 1   
    32   30   33 1   
    33   30   38 1   
    34   31   32 2   
    35   31   41 1   
    36   33   34 1   
    37   33   39 1   
    38   33   40 1   
    39   34   35 1   
    40   34   36 1   
    41   41   42 1   
    42   41   45 1   
    43   42   43 1   
    44   42   46 1   
    45   42   47 1   
    46   43   44 2   
    47   43   48 1   
    48   48   49 1   
    49   48   56 1   
    50   49   50 1   
    51   49   52 1   
    52   49   57 1   
    53   50   51 2   
    54   50   62 1   
    55   52   53 1   
    56   52   58 1   
    57   52   59 1   
    58   53   54 1   
    59   53   55 2   
    60   54   60 1   
    61   54   61 1   
    62   62   63 1   
    63   62   66 1   
    64   63   64 1   
    65   63   67 1   
    66   63   68 1   
    67   64   65 2   
    68   64   69 1   
    69   69   70 1   
    70   69   76 1   
    71   70   71 1   
    72   70   73 1   
    73   70   77 1   
    74   71   72 2   
    75   71   83 1   
    76   73   74 1   
    77   73   75 1   
    78   73   78 1   
    79   74   80 1   
    80   74   81 1   
    81   74   82 1   
    82   75   79 1   
    83   83   84 1   
    84   83   91 1   
    85   84   85 1   
    86   84   87 1   
    87   84   92 1   
    88   85   86 2   
    89   85  102 1   
    90   87   88 1   
    91   87   89 1   
    92   87   93 1   
    93   88   90 1   
    94   88   94 1   
    95   88   95 1   
    96   89   96 1   
    97   89   97 1   
    98   89   98 1   
    99   90   99 1   
   100   90  100 1   
   101   90  101 1   
   102  102  103 1   
   103  102  110 1   
   104  103  104 1   
   105  103  106 1   
   106  103  111 1   
   107  104  105 2   
   108  104  114 1   
   109  106  107 1   
   110  106  112 1   
   111  106  113 1   
   112  107  108 1   
   113  107  109 1   
   114  114  115 1   
   115  114  125 1   
   116  115  116 1   
   117  115  118 1   
   118  115  126 1   
   119  116  117 2   
   120  116  134 1   
   121  118  119 1   
   122  118  127 1   
   123  118  128 1   
   124  119  120 ar  
   125  119  121 ar  
   126  120  122 ar  
   127  120  129 1   
   128  121  123 ar  
   129  121  130 1   
   130  122  124 ar  
   131  122  131 1   
   132  123  124 ar  
   133  123  132 1   
   134  124  133 1   
   135  134  135 1   
   136  134  140 1   
   137  135  136 1   
   138  135  138 1   
   139  135  141 1   
   140  136  137 2   
   141  136  148 1   
   142  138  139 1   
   143  138  142 1   
   144  138  143 1   
   145  139  140 1   
   146  139  144 1   
   147  139  145 1   
   148  140  146 1   
   149  140  147 1   
   150  148  149 1   
   151  148  157 1   
   152  149  150 1   
   153  149  152 1   
   154  149  158 1   
   155  150  151 2   
   156  150  163 1   
   157  152  153 1   
   158  152  159 1   
   159  152  160 1   
   160  153  154 1   
   161  153  161 1   
   162  153  162 1   
   163  154  155 1   
   164  154  156 1   
   165  163  164 1   
   166  163  168 1   
   167  164  165 1   
   168  164  166 1   
   169  164  167 1   
   170  170  171 1   
   171  170  172 1   
   172  173  174 1   
   173  173  175 1   
@<TRIPOS>SUBSTRUCTURE
     1 MOL         1 TEMP              0 ****  ****    0 ROOT
