@<TRIPOS>MOLECULE
MOL
  176   174     1     0     0
SMALL
resp


@<TRIPOS>ATOM
      1 C1          2.0190   -3.8890    6.8110 c3        1 MOL     -0.381039
      2 C2          1.2950   -3.6740    5.4860 c         1 MOL      0.695317
      3 O1          0.1400   -3.9880    5.2400 o         1 MOL     -0.548142
      4 H1          1.6960   -3.1330    7.5270 hc        1 MOL      0.103060
      5 H2          1.7830   -4.8800    7.1980 hc        1 MOL      0.103060
      6 H3          3.0950   -3.8050    6.6560 hc        1 MOL      0.103060
      7 N1          2.0280   -3.0300    4.4960 n         1 MOL     -0.553127
      8 C3          1.6740   -2.7520    3.0660 c3        1 MOL     -0.045046
      9 C4          1.4300   -4.0460    2.2430 c         1 MOL      0.706210
     10 O2          1.9600   -5.1150    2.6490 o         1 MOL     -0.567606
     11 C5          2.9090   -2.0030    2.5750 c3        1 MOL     -0.287353
     12 C6          2.7970   -1.5030    1.1410 c         1 MOL      0.986912
     13 O3          2.4750   -2.1850    0.1810 o         1 MOL     -0.793064
     14 O4          2.8560   -0.2710    0.9000 o         1 MOL     -0.793064
     15 H4          2.9810   -2.7830    4.7480 hn        1 MOL      0.306800
     16 H5          0.8170   -2.0810    2.9960 h1        1 MOL      0.092698
     17 H6          3.7850   -2.6390    2.6520 hc        1 MOL      0.072885
     18 H7          3.0040   -1.1320    3.2160 hc        1 MOL      0.072885
     19 N2          0.6230   -4.0070    1.2350 n         1 MOL     -0.439285
     20 C7          0.1860   -5.1160    0.3690 c3        1 MOL     -0.174948
     21 C8          1.1340   -5.3920   -0.8430 c         1 MOL      0.492705
     22 O5          1.1600   -6.5280   -1.3960 o         1 MOL     -0.576141
     23 C9         -1.1980   -4.8370   -0.1930 c3        1 MOL      0.318590
     24 C10        -1.9520   -6.0080   -0.8150 c3        1 MOL     -0.025744
     25 C11        -3.3800   -5.5780   -1.2150 c3        1 MOL      0.152424
     26 C12        -4.2510   -6.5140   -2.0750 c3        1 MOL     -0.167724
     27 N3         -3.5230   -7.0310   -3.2980 n4        1 MOL     -0.303863
     28 H8          0.2110   -3.1280    0.9480 hn        1 MOL      0.285485
     29 H9          0.2040   -6.0080    0.9970 h1        1 MOL      0.132550
     30 H10        -1.1880   -4.0590   -0.9530 hc        1 MOL     -0.029718
     31 H11        -1.7670   -4.4780    0.6600 hc        1 MOL     -0.029718
     32 H12        -1.9900   -6.8180   -0.0970 hc        1 MOL     -0.030828
     33 H13        -1.4580   -6.2660   -1.7610 hc        1 MOL     -0.030828
     34 H14        -3.2810   -4.6220   -1.7190 hc        1 MOL     -0.003892
     35 H15        -3.8870   -5.3790   -0.2630 hc        1 MOL     -0.003892
     36 H16        -5.1420   -5.9550   -2.3730 hx        1 MOL      0.137225
     37 H17        -4.5990   -7.3210   -1.4230 hx        1 MOL      0.137225
     38 H18        -3.4750   -6.3610   -4.0480 hn        1 MOL      0.318799
     39 H19        -2.6180   -7.3410   -2.9520 hn        1 MOL      0.318799
     40 H20        -3.9840   -7.8510   -3.6470 hn        1 MOL      0.318799
     41 N4          2.1940   -4.5520   -1.1190 n         1 MOL     -0.271722
     42 C13         3.3100   -4.7830   -2.1180 c3        1 MOL      0.026959
     43 C14         4.7100   -4.4310   -1.5910 c         1 MOL      0.499069
     44 O6          5.6740   -4.7400   -2.2100 o         1 MOL     -0.529760
     45 C15         2.9490   -4.0280   -3.3940 c3        1 MOL     -0.341213
     46 C16         2.3690   -2.6420   -3.0820 c         1 MOL      0.751899
     47 O7          1.1450   -2.4040   -3.1410 o         1 MOL     -0.727903
     48 O8          3.1250   -1.7140   -2.6710 o         1 MOL     -0.727903
     49 H21         2.2790   -3.7730   -0.4730 hn        1 MOL      0.181195
     50 H22         3.3770   -5.8530   -2.2880 h1        1 MOL      0.112303
     51 H23         2.1360   -4.5750   -3.8710 hc        1 MOL      0.098586
     52 H24         3.8180   -3.9860   -4.0360 hc        1 MOL      0.098586
     53 N5          4.7640   -3.6780   -0.4770 n         1 MOL     -0.331651
     54 C17         5.9940   -3.1610    0.1390 c3        1 MOL     -0.088493
     55 C18         6.4300   -1.7850   -0.1700 c         1 MOL      0.453629
     56 O9          7.4190   -1.5130    0.5130 o         1 MOL     -0.560523
     57 H25         3.9010   -3.3270   -0.0800 hn        1 MOL      0.160949
     58 H26         6.7900   -3.7640   -0.2830 h1        1 MOL      0.103603
     59 H27         6.0000   -3.3340    1.2100 h1        1 MOL      0.103603
     60 N6          5.7600   -0.9690   -0.9870 n         1 MOL     -0.071532
     61 C19         6.3170    0.3550   -1.3800 c3        1 MOL     -0.318600
     62 C20         6.2320    1.4220   -0.2880 c         1 MOL      0.370173
     63 O10         6.7420    2.5370   -0.4290 o         1 MOL     -0.434488
     64 C21         5.6410    0.7340   -2.7380 c3        1 MOL      0.027240
     65 C22         4.2960    1.4470   -2.6890 c         1 MOL      0.684423
     66 N7          4.0400    2.3100   -3.6770 n         1 MOL     -0.732512
     67 O11         3.4410    1.1970   -1.8120 o         1 MOL     -0.756501
     68 H28         4.9280   -1.2450   -1.4780 hn        1 MOL      0.191009
     69 H29         7.3820    0.1640   -1.5400 h1        1 MOL      0.175763
     70 H30         5.6240   -0.1000   -3.4310 hc        1 MOL      0.041529
     71 H31         6.2300    1.5180   -3.2160 hc        1 MOL      0.041529
     72 H32         4.7070    2.3720   -4.4450 hn        1 MOL      0.354219
     73 H33         3.2190    2.8830   -3.5520 hn        1 MOL      0.354219
     74 N8          5.5590    1.1050    0.8060 n         1 MOL      0.008108
     75 C23         5.3850    1.9260    1.9730 c3        1 MOL     -0.390261
     76 C24         4.4300    3.0780    1.8270 c         1 MOL      0.544693
     77 O12         4.5890    4.1930    2.3300 o         1 MOL     -0.511261
     78 H34         5.0650    0.2290    0.7830 hn        1 MOL      0.144862
     79 H35         6.3730    2.3520    2.1360 h1        1 MOL      0.148825
     80 H36         5.1250    1.3190    2.8460 h1        1 MOL      0.148825
     81 N9          3.3780    2.7770    1.0050 n         1 MOL     -0.221464
     82 C25         2.2300    3.6070    0.5680 c3        1 MOL      0.354019
     83 C26         0.9850    2.8250    0.4630 c         1 MOL      0.472534
     84 O13         0.8200    1.9490   -0.3450 o         1 MOL     -0.632027
     85 C27         2.6080    4.3470   -0.7030 c3        1 MOL     -0.044284
     86 C28         3.5000    5.5810   -0.6160 ca        1 MOL      0.023685
     87 C29         4.8160    5.6030   -1.1620 ca        1 MOL     -0.209159
     88 C30         3.0420    6.7290    0.0750 ca        1 MOL     -0.209159
     89 C31         5.7020    6.6580   -1.0150 ca        1 MOL     -0.194591
     90 C32         3.9020    7.8890    0.1830 ca        1 MOL     -0.194591
     91 C33         5.2250    7.8880   -0.3790 ca        1 MOL      0.295653
     92 O14         6.0040    8.9730   -0.4820 oh        1 MOL     -0.447375
     93 H37         3.4070    1.8380    0.6260 hn        1 MOL      0.078232
     94 H38         2.1310    4.2780    1.4240 h1        1 MOL     -0.075133
     95 H39         1.7080    4.7940   -1.1380 hc        1 MOL      0.016294
     96 H40         3.0680    3.6100   -1.3620 hc        1 MOL      0.016294
     97 H41         5.1300    4.7580   -1.7550 ha        1 MOL      0.135771
     98 H42         2.0700    6.6930    0.5440 ha        1 MOL      0.135771
     99 H43         6.7000    6.5890   -1.4170 ha        1 MOL      0.131868
    100 H44         3.5480    8.7270    0.7700 ha        1 MOL      0.131868
    101 H45         5.5060    9.7940   -0.5690 ho        1 MOL      0.338058
    102 N10         0.0580    3.2030    1.3510 n         1 MOL     -0.597954
    103 C34        -1.2570    2.5600    1.4580 c3        1 MOL     -0.011613
    104 C35        -2.3990    3.5370    1.0250 c         1 MOL      0.499299
    105 O15        -2.7640    4.5050    1.6720 o         1 MOL     -0.538666
    106 C36        -1.3880    1.9650    2.8850 c3        1 MOL      0.091075
    107 C37        -0.2550    0.9520    3.0920 c3        1 MOL      0.457651
    108 C38        -2.7910    1.3090    3.1230 c3        1 MOL     -0.349200
    109 C39        -0.2890    0.1240    4.3610 c3        1 MOL     -0.402151
    110 H46         0.3770    3.8470    2.0630 hn        1 MOL      0.358272
    111 H47        -1.2820    1.7510    0.7240 h1        1 MOL      0.230620
    112 H48        -1.1720    2.7180    3.6390 hc        1 MOL     -0.017902
    113 H49         0.6640    1.5420    3.1060 hc        1 MOL     -0.107584
    114 H50        -0.2630    0.2970    2.2190 hc        1 MOL     -0.107584
    115 H51        -3.5460    2.0730    2.9240 hc        1 MOL      0.079012
    116 H52        -2.9690    0.5110    2.4020 hc        1 MOL      0.079012
    117 H53        -2.7530    0.9140    4.1380 hc        1 MOL      0.079012
    118 H54         0.7100   -0.2900    4.4390 hc        1 MOL      0.093997
    119 H55        -0.5040    0.7620    5.2200 hc        1 MOL      0.093997
    120 H56        -1.0880   -0.6020    4.2330 hc        1 MOL      0.093997
    121 N11        -3.0510    3.1940   -0.0770 n         1 MOL     -0.248928
    122 C40        -4.2770    3.8510   -0.5710 c3        1 MOL     -0.137710
    123 C41        -5.4300    3.2920    0.2460 c         1 MOL      0.496607
    124 O16        -5.2920    2.2300    0.8660 o         1 MOL     -0.332121
    125 C42        -4.3940    3.5260   -2.0400 c3        1 MOL     -0.058043
    126 O17        -4.3690    2.1330   -2.3160 oh        1 MOL     -0.435342
    127 H57        -2.6470    2.4010   -0.5650 hn        1 MOL      0.219601
    128 H58        -4.1140    4.9150   -0.3740 h1        1 MOL      0.128870
    129 H59        -3.5860    3.8870   -2.6790 h1        1 MOL      0.085219
    130 H60        -5.3510    3.9600   -2.3310 h1        1 MOL      0.085219
    131 H61        -3.5230    1.9480   -2.7220 ho        1 MOL      0.404014
    132 N12        -6.6320    3.8730    0.0390 n         1 MOL     -0.462933
    133 C43        -7.9160    3.4480    0.5960 c3        1 MOL      0.095707
    134 C44        -8.3590    2.2020   -0.1960 c         1 MOL      0.448649
    135 O18        -9.2620    1.5370    0.3680 o         1 MOL     -0.505534
    136 C45        -9.0300    4.4840    0.6160 c3        1 MOL     -0.280950
    137 H62        -6.6130    4.7310   -0.4930 hn        1 MOL      0.285615
    138 H63        -7.6540    3.2180    1.6340 h1        1 MOL      0.112785
    139 H64        -9.7490    4.2500    1.4030 hc        1 MOL      0.097435
    140 H65        -8.7200    5.5170    0.7990 hc        1 MOL      0.097435
    141 H66        -9.4240    4.4840   -0.4020 hc        1 MOL      0.097435
    142 N13        -7.8990    2.0130   -1.4230 n         1 MOL     -0.323146
    143 C46        -8.0540    0.8260   -2.2530 c3        1 MOL     -0.001463
    144 C47        -7.3260   -0.4100   -1.6820 c         1 MOL      0.400907
    145 O19        -7.7570   -1.5400   -1.8200 o         1 MOL     -0.505820
    146 C48        -7.4890    1.0150   -3.7290 c3        1 MOL     -0.192659
    147 H67        -7.3340    2.7620   -1.8010 hn        1 MOL      0.302416
    148 H68        -9.1250    0.7040   -2.4260 h1        1 MOL      0.110174
    149 H69        -7.9220    1.8820   -4.2210 hc        1 MOL      0.067462
    150 H70        -6.4490    1.3180   -3.6350 hc        1 MOL      0.067462
    151 H71        -7.7060    0.1330   -4.3360 hc        1 MOL      0.067462
    152 N14        -6.2120   -0.0870   -0.9750 n         1 MOL      0.089443
    153 C49        -5.3590   -1.1350   -0.2700 c3        1 MOL     -0.063385
    154 C50        -5.6180   -1.3150    1.2790 c         1 MOL      0.398149
    155 O20        -5.5950   -2.4420    1.8310 o         1 MOL     -0.540417
    156 C51        -3.9310   -0.6870   -0.6410 c3        1 MOL      0.077933
    157 C52        -2.8410   -1.6460   -0.1480 c3        1 MOL     -0.406076
    158 C53        -1.4370   -1.2330   -0.4760 c         1 MOL      0.766286
    159 O21        -0.5640   -1.5900    0.3160 o         1 MOL     -0.787978
    160 O22        -1.0970   -0.3150   -1.3020 o         1 MOL     -0.787978
    161 H72        -5.9470    0.8910   -1.0180 hn        1 MOL     -0.268222
    162 H73        -5.5580   -2.0870   -0.7600 h1        1 MOL      0.040369
    163 H74        -3.7110    0.2910   -0.2070 hc        1 MOL      0.014508
    164 H75        -3.8380   -0.5920   -1.7250 hc        1 MOL      0.014508
    165 H76        -3.0520   -2.5620   -0.7000 hc        1 MOL      0.145519
    166 H77        -2.8440   -1.7840    0.9320 hc        1 MOL      0.145519
    167 N15        -6.0660   -0.2870    1.9590 n         1 MOL     -0.043653
    168 C54        -6.5880   -0.3630    3.3580 c3        1 MOL     -0.175342
    169 H78        -6.7780   -1.4050    3.6180 h1        1 MOL      0.087879
    170 H79        -5.8500    0.0520    4.0450 h1        1 MOL      0.087879
    171 H80        -7.5150    0.2050    3.4330 h1        1 MOL      0.087879
    172 H81        -6.2480    0.5870    1.4930 hn        1 MOL      0.094383
    173 Ca1         1.4680   -0.4290   -1.2580 Ca        1 MOL      1.815048
    174 O23         0.9750    0.9980   -3.6310 oh        1 MOL     -0.806609
    175 H82         0.4370    0.9200   -4.4260 ho        1 MOL      0.400521
    176 H83         1.3070    1.8890   -3.6570 ho        1 MOL      0.400521
@<TRIPOS>BOND
     1    1    2 1   
     2    1    4 1   
     3    1    5 1   
     4    1    6 1   
     5    2    3 2   
     6    2    7 1   
     7    7    8 1   
     8    7   15 1   
     9    8    9 1   
    10    8   11 1   
    11    8   16 1   
    12    9   10 2   
    13    9   19 1   
    14   11   12 1   
    15   11   17 1   
    16   11   18 1   
    17   12   13 1   
    18   12   14 1   
    19   19   20 1   
    20   19   28 1   
    21   20   21 1   
    22   20   23 1   
    23   20   29 1   
    24   21   22 2   
    25   21   41 1   
    26   23   24 1   
    27   23   30 1   
    28   23   31 1   
    29   24   25 1   
    30   24   32 1   
    31   24   33 1   
    32   25   26 1   
    33   25   34 1   
    34   25   35 1   
    35   26   27 1   
    36   26   36 1   
    37   26   37 1   
    38   27   38 1   
    39   27   39 1   
    40   27   40 1   
    41   41   42 1   
    42   41   49 1   
    43   42   43 1   
    44   42   45 1   
    45   42   50 1   
    46   43   44 2   
    47   43   53 1   
    48   45   46 1   
    49   45   51 1   
    50   45   52 1   
    51   46   47 1   
    52   46   48 1   
    53   53   54 1   
    54   53   57 1   
    55   54   55 1   
    56   54   58 1   
    57   54   59 1   
    58   55   56 2   
    59   55   60 1   
    60   60   61 1   
    61   60   68 1   
    62   61   62 1   
    63   61   64 1   
    64   61   69 1   
    65   62   63 2   
    66   62   74 1   
    67   64   65 1   
    68   64   70 1   
    69   64   71 1   
    70   65   66 1   
    71   65   67 2   
    72   66   72 1   
    73   66   73 1   
    74   74   75 1   
    75   74   78 1   
    76   75   76 1   
    77   75   79 1   
    78   75   80 1   
    79   76   77 2   
    80   76   81 1   
    81   81   82 1   
    82   81   93 1   
    83   82   83 1   
    84   82   85 1   
    85   82   94 1   
    86   83   84 2   
    87   83  102 1   
    88   85   86 1   
    89   85   95 1   
    90   85   96 1   
    91   86   87 ar  
    92   86   88 ar  
    93   87   89 ar  
    94   87   97 1   
    95   88   90 ar  
    96   88   98 1   
    97   89   91 ar  
    98   89   99 1   
    99   90   91 ar  
   100   90  100 1   
   101   91   92 1   
   102   92  101 1   
   103  102  103 1   
   104  102  110 1   
   105  103  104 1   
   106  103  106 1   
   107  103  111 1   
   108  104  105 2   
   109  104  121 1   
   110  106  107 1   
   111  106  108 1   
   112  106  112 1   
   113  107  109 1   
   114  107  113 1   
   115  107  114 1   
   116  108  115 1   
   117  108  116 1   
   118  108  117 1   
   119  109  118 1   
   120  109  119 1   
   121  109  120 1   
   122  121  122 1   
   123  121  127 1   
   124  122  123 1   
   125  122  125 1   
   126  122  128 1   
   127  123  124 2   
   128  123  132 1   
   129  125  126 1   
   130  125  129 1   
   131  125  130 1   
   132  126  131 1   
   133  132  133 1   
   134  132  137 1   
   135  133  134 1   
   136  133  136 1   
   137  133  138 1   
   138  134  135 2   
   139  134  142 1   
   140  136  139 1   
   141  136  140 1   
   142  136  141 1   
   143  142  143 1   
   144  142  147 1   
   145  143  144 1   
   146  143  146 1   
   147  143  148 1   
   148  144  145 2   
   149  144  152 1   
   150  146  149 1   
   151  146  150 1   
   152  146  151 1   
   153  152  153 1   
   154  152  161 1   
   155  153  154 1   
   156  153  156 1   
   157  153  162 1   
   158  154  155 2   
   159  154  167 1   
   160  156  157 1   
   161  156  163 1   
   162  156  164 1   
   163  157  158 1   
   164  157  165 1   
   165  157  166 1   
   166  158  159 1   
   167  158  160 1   
   168  167  168 1   
   169  167  172 1   
   170  168  169 1   
   171  168  170 1   
   172  168  171 1   
   173  174  175 1   
   174  174  176 1   
@<TRIPOS>SUBSTRUCTURE
     1 MOL         1 TEMP              0 ****  ****    0 ROOT
