@<TRIPOS>MOLECULE
MOL
  189   185     1     0     0
SMALL
resp


@<TRIPOS>ATOM
      1 C1         -0.8870    2.5750   -4.9850 c3        1 MOL     -0.434858
      2 C2         -0.1520    2.2890   -3.6640 c         1 MOL      0.727323
      3 O1         -0.6030    2.6520   -2.6120 o         1 MOL     -0.602406
      4 H1         -0.8450    3.6420   -5.2010 hc        1 MOL      0.109317
      5 H2         -0.4090    2.0220   -5.7940 hc        1 MOL      0.109317
      6 H3         -1.9280    2.2640   -4.8970 hc        1 MOL      0.109317
      7 N1          1.0640    1.7820   -3.6890 n         1 MOL     -0.568202
      8 C3          1.9610    1.5610   -2.5850 c3        1 MOL      0.378224
      9 C4          2.5270    2.8830   -1.9230 c         1 MOL      0.307009
     10 O2          3.6540    3.2100   -2.2040 o         1 MOL     -0.497124
     11 C5          3.0140    0.5120   -3.1080 c3        1 MOL     -0.508445
     12 C6          3.8930    0.1650   -1.9270 c         1 MOL      0.809937
     13 O3          3.4730    0.2090   -0.7240 o         1 MOL     -0.677436
     14 O4          5.0590   -0.2720   -2.1530 o         1 MOL     -0.677436
     15 H4          1.5040    1.4030   -4.5170 hn        1 MOL      0.286542
     16 H5          1.4040    1.1180   -1.7600 h1        1 MOL     -0.029028
     17 H6          3.6680    1.0150   -3.8150 hc        1 MOL      0.128619
     18 H7          2.5490   -0.4240   -3.4120 hc        1 MOL      0.128619
     19 N2          1.7470    3.6170   -1.2010 n         1 MOL     -0.115784
     20 C7          2.1540    4.9520   -0.7540 c3        1 MOL     -0.112377
     21 C8          3.2280    5.0030    0.3830 c         1 MOL      0.436459
     22 O5          3.6880    6.0580    0.7150 o         1 MOL     -0.556746
     23 C9          0.9550    5.7450   -0.3110 c3        1 MOL      0.047933
     24 C10        -0.1650    6.0340   -1.3210 c3        1 MOL      0.042069
     25 C11         0.4710    6.8450   -2.4660 c3        1 MOL     -0.124955
     26 C12        -0.5580    7.8260   -3.0390 c3        1 MOL      0.006354
     27 N3         -1.8140    7.2280   -3.5230 n4        1 MOL     -0.292160
     28 H8          0.7570    3.4220   -1.2520 hn        1 MOL      0.238770
     29 H9          2.6330    5.4320   -1.6050 h1        1 MOL      0.090354
     30 H10         1.2160    6.6630    0.2200 hc        1 MOL      0.013487
     31 H11         0.5640    5.1620    0.5290 hc        1 MOL      0.013487
     32 H12        -1.0490    6.5200   -0.9080 hc        1 MOL      0.003182
     33 H13        -0.4040    5.0610   -1.7470 hc        1 MOL      0.003182
     34 H14         0.7830    6.1000   -3.2000 hc        1 MOL      0.064849
     35 H15         1.4150    7.2910   -2.1490 hc        1 MOL      0.064849
     36 H16        -0.0680    8.3350   -3.8700 hx        1 MOL      0.087921
     37 H17        -0.8180    8.6590   -2.3810 hx        1 MOL      0.087921
     38 H18        -1.6620    6.7630   -4.4070 hn        1 MOL      0.311566
     39 H19        -2.1190    6.4750   -2.9200 hn        1 MOL      0.311566
     40 H20        -2.5880    7.8660   -3.6500 hn        1 MOL      0.311566
     41 N4          3.4240    3.9320    1.1570 n         1 MOL     -0.099182
     42 C13         4.4670    3.7820    2.2590 c3        1 MOL      0.043854
     43 C14         5.6750    2.9100    1.9530 c         1 MOL      0.348719
     44 O6          6.6100    2.9050    2.7250 o         1 MOL     -0.527723
     45 C15         3.7770    3.2610    3.5300 c3        1 MOL     -0.331755
     46 C16         2.9270    2.0160    3.3890 c         1 MOL      0.905985
     47 O7          2.0320    1.9230    4.1900 o         1 MOL     -0.762859
     48 O8          3.0120    1.2490    2.4500 o         1 MOL     -0.762859
     49 H21         2.8680    3.1390    0.8660 hn        1 MOL      0.079580
     50 H22         4.8450    4.7770    2.4990 h1        1 MOL      0.100305
     51 H23         3.0960    4.0710    3.7930 hc        1 MOL      0.077679
     52 H24         4.4700    3.0950    4.3560 hc        1 MOL      0.077679
     53 N5          5.6830    2.2390    0.8490 n         1 MOL     -0.116530
     54 C17         6.9200    1.6130    0.3470 c3        1 MOL     -0.074092
     55 C18         7.3370    0.3690    1.0830 c         1 MOL      0.471726
     56 O9          8.5150    0.0960    1.1190 o         1 MOL     -0.559551
     57 H25         4.8480    2.3680    0.2990 hn        1 MOL      0.111963
     58 H26         7.7200    2.3160    0.1130 h1        1 MOL      0.077739
     59 H27         6.6160    1.2020   -0.6180 h1        1 MOL      0.077739
     60 N6          6.3690   -0.2980    1.6630 n         1 MOL     -0.224098
     61 C19         6.6420   -1.6990    2.1930 c3        1 MOL     -0.108937
     62 C20         6.7800   -2.6470    1.0010 c         1 MOL      0.405793
     63 O10         7.1790   -3.7940    1.1360 o         1 MOL     -0.557837
     64 C21         5.5280   -2.1200    3.1670 c3        1 MOL     -0.130979
     65 C22         4.1440   -2.0670    2.5870 c         1 MOL      0.746373
     66 O11         3.1640   -1.8310    3.3390 o         1 MOL     -0.721564
     67 O12         3.8870   -2.2360    1.3530 o         1 MOL     -0.721564
     68 H28         5.4680    0.1220    1.8220 hn        1 MOL      0.222382
     69 H29         7.5850   -1.6400    2.7440 h1        1 MOL      0.133892
     70 H30         5.4800   -1.5080    4.0720 hc        1 MOL      0.058182
     71 H31         5.6670   -3.1110    3.5790 hc        1 MOL      0.058182
     72 N7          6.3870   -2.3640   -0.2270 n         1 MOL      0.016346
     73 C23         6.6350   -3.1840   -1.4310 c3        1 MOL     -0.282276
     74 C24         5.4100   -4.0980   -1.6420 c         1 MOL      0.564504
     75 O13         5.5250   -5.1950   -2.2580 o         1 MOL     -0.575539
     76 H32         5.8650   -1.5220   -0.4470 hn        1 MOL      0.092051
     77 H33         7.5230   -3.8010   -1.3430 h1        1 MOL      0.130926
     78 H34         6.6920   -2.4930   -2.2680 h1        1 MOL      0.130926
     79 N8          4.2010   -3.7530   -1.1090 n         1 MOL     -0.166877
     80 C25         2.8730   -4.4390   -1.4020 c3        1 MOL     -0.261413
     81 C26         1.6860   -3.4940   -1.4210 c         1 MOL      0.798511
     82 O14         1.7640   -2.4000   -0.8690 o         1 MOL     -0.686903
     83 C27         2.7340   -5.5120   -0.3270 c3        1 MOL      0.340301
     84 C28         3.8300   -6.6020   -0.0150 c3        1 MOL     -0.471628
     85 O15         2.5570   -4.9650    0.9830 oh        1 MOL     -0.544517
     86 H35         4.1980   -2.9150   -0.5560 hn        1 MOL      0.127563
     87 H36         2.8690   -4.9810   -2.3450 h1        1 MOL      0.103227
     88 H37         1.7690   -5.9570   -0.5280 h1        1 MOL      0.011511
     89 H38         3.0770   -4.1700    0.8840 ho        1 MOL      0.360612
     90 H39         4.1880   -7.0500   -0.9340 hc        1 MOL      0.132358
     91 H40         4.7450   -6.2040    0.4060 hc        1 MOL      0.132358
     92 H41         3.4090   -7.4580    0.5210 hc        1 MOL      0.132358
     93 N9          0.4640   -3.8530   -1.8370 n         1 MOL     -0.657413
     94 C29        -0.6890   -2.9530   -1.9150 c3        1 MOL      0.042799
     95 C30        -1.8990   -3.5040   -1.2050 c         1 MOL      0.626901
     96 O16        -2.4210   -4.5320   -1.7070 o         1 MOL     -0.563247
     97 C31        -0.8960   -2.6630   -3.3580 c3        1 MOL      0.258534
     98 C32         0.2840   -1.9810   -4.1170 c3        1 MOL      0.084793
     99 C33        -2.1980   -1.7570   -3.5310 c3        1 MOL     -0.480470
    100 C34         0.2090   -2.0660   -5.6830 c3        1 MOL     -0.250931
    101 H42         0.3460   -4.7690   -2.2410 hn        1 MOL      0.316083
    102 H43        -0.4660   -2.0390   -1.3670 h1        1 MOL      0.066028
    103 H44        -0.9440   -3.6060   -3.9070 hc        1 MOL     -0.021278
    104 H45         1.1980   -2.4990   -3.8350 hc        1 MOL      0.013648
    105 H46         0.3930   -0.9140   -3.8760 hc        1 MOL      0.013648
    106 H47        -2.4660   -1.3900   -4.5230 hc        1 MOL      0.098920
    107 H48        -3.0990   -2.2720   -3.2090 hc        1 MOL      0.098920
    108 H49        -1.9950   -0.9010   -2.8920 hc        1 MOL      0.098920
    109 H50         1.0450   -1.5370   -6.1460 hc        1 MOL      0.055360
    110 H51         0.3430   -3.0890   -6.0340 hc        1 MOL      0.055360
    111 H52        -0.7470   -1.6960   -6.0470 hc        1 MOL      0.055360
    112 N10        -2.3570   -2.7890   -0.1530 n         1 MOL     -0.477876
    113 C35        -3.6040   -3.1060    0.6260 c3        1 MOL     -0.022350
    114 C36        -4.8870   -2.7060   -0.0960 c         1 MOL      0.464257
    115 O17        -4.8570   -1.8350   -0.9500 o         1 MOL     -0.325456
    116 C37        -3.6790   -2.5670    1.9990 c3        1 MOL     -0.037328
    117 C38        -2.4290   -2.8250    2.8250 c3        1 MOL     -0.410789
    118 O18        -3.9160   -1.1750    1.9710 oh        1 MOL     -0.245646
    119 H53        -1.8010   -2.0430    0.2370 hn        1 MOL      0.358135
    120 H54        -3.6280   -4.1810    0.7570 h1        1 MOL      0.088008
    121 H55        -4.5590   -3.0740    2.3890 h1        1 MOL      0.053296
    122 H56        -3.4070   -0.8570    2.7220 ho        1 MOL      0.330103
    123 H57        -1.9150   -3.7870    2.7060 hc        1 MOL      0.135205
    124 H58        -1.7770   -2.0260    2.4890 hc        1 MOL      0.135205
    125 H59        -2.6750   -2.8600    3.8820 hc        1 MOL      0.135205
    126 N11        -5.9820   -3.3810    0.3330 n         1 MOL     -0.473893
    127 C39        -7.2730   -2.8060    0.0080 c3        1 MOL     -0.007571
    128 C40        -7.4380   -1.3140    0.2170 c         1 MOL      0.424536
    129 O19        -8.2050   -0.7310   -0.6150 o         1 MOL     -0.512644
    130 C41        -8.3870   -3.6760    0.4710 c3        1 MOL      0.352266
    131 C42        -8.3490   -5.1300    0.0120 c3        1 MOL     -0.287617
    132 O20        -8.5090   -3.6730    1.8540 oh        1 MOL     -0.658700
    133 H60        -5.9170   -4.1050    1.0360 hn        1 MOL      0.349354
    134 H61        -7.4410   -2.8690   -1.0730 h1        1 MOL      0.089042
    135 H62        -9.3280   -3.2840    0.0860 h1        1 MOL      0.007254
    136 H63        -9.4000   -4.0060    2.0220 ho        1 MOL      0.410784
    137 H64        -8.3060   -5.1680   -1.0740 hc        1 MOL      0.079135
    138 H65        -7.5070   -5.6740    0.4580 hc        1 MOL      0.079135
    139 H66        -9.3010   -5.6020    0.2340 hc        1 MOL      0.079135
    140 N12        -6.7850   -0.7610    1.2100 n         1 MOL     -0.315785
    141 C43        -6.9540    0.6590    1.5980 c3        1 MOL     -0.007184
    142 C44        -6.1550    1.5860    0.6850 c         1 MOL      0.225897
    143 O21        -6.5980    2.7130    0.3430 o         1 MOL     -0.504740
    144 C45        -6.6740    0.8620    3.1050 c3        1 MOL      0.007891
    145 C46        -6.2530    2.2550    3.6030 c3        1 MOL     -0.048023
    146 C47        -5.9300    2.1410    5.0960 c3        1 MOL     -0.105578
    147 C48        -5.6390    3.4220    5.7940 c3        1 MOL     -0.097691
    148 N13        -4.2560    3.9280    5.4890 n4        1 MOL     -0.412530
    149 H67        -6.1720   -1.2800    1.8180 hn        1 MOL      0.256055
    150 H68        -7.9880    0.9720    1.4080 h1        1 MOL      0.135188
    151 H69        -5.8540    0.1630    3.2920 hc        1 MOL      0.006297
    152 H70        -7.6010    0.6130    3.6390 hc        1 MOL      0.006297
    153 H71        -7.0960    2.9300    3.4500 hc        1 MOL      0.048461
    154 H72        -5.3360    2.5330    3.0820 hc        1 MOL      0.048461
    155 H73        -5.1590    1.4150    5.3410 hc        1 MOL      0.072085
    156 H74        -6.8160    1.6810    5.5310 hc        1 MOL      0.072085
    157 H75        -5.7810    3.2830    6.8680 hx        1 MOL      0.146205
    158 H76        -6.4260    4.0750    5.4160 hx        1 MOL      0.146205
    159 H77        -4.1760    3.9790    4.4810 hn        1 MOL      0.350218
    160 H78        -4.2100    4.8730    5.8450 hn        1 MOL      0.350218
    161 H79        -3.5260    3.3420    5.8600 hn        1 MOL      0.350218
    162 N14        -5.0200    1.0880    0.1260 n         1 MOL      0.363971
    163 C49        -4.2250    1.7880   -0.8590 c3        1 MOL     -0.481767
    164 C50        -4.9370    1.8270   -2.2170 c         1 MOL      0.586257
    165 O22        -4.9740    2.8540   -2.9190 o         1 MOL     -0.592102
    166 C51        -2.8580    1.1750   -0.9460 c3        1 MOL      0.163502
    167 C52        -1.8650    1.7550    0.1420 c3        1 MOL     -0.180806
    168 C53        -0.5130    0.9520    0.1800 c         1 MOL      0.556884
    169 O23        -0.5140   -0.2940    0.1860 o         1 MOL     -0.640786
    170 O24         0.5490    1.5520    0.4240 o         1 MOL     -0.640786
    171 H80        -4.7450    0.1540    0.4060 hn        1 MOL     -0.146444
    172 H81        -4.0980    2.8510   -0.6930 h1        1 MOL      0.117074
    173 H82        -2.4510    1.3570   -1.9420 hc        1 MOL      0.015612
    174 H83        -3.0330    0.1020   -0.8600 hc        1 MOL      0.015612
    175 H84        -2.3450    1.6990    1.1270 hc        1 MOL      0.006396
    176 H85        -1.6720    2.8140   -0.0190 hc        1 MOL      0.006396
    177 N15        -5.6460    0.7640   -2.6990 n         1 MOL     -0.158302
    178 C54        -6.4880    0.6520   -3.8800 c3        1 MOL     -0.208497
    179 H86        -7.3280   -0.0090   -3.6650 h1        1 MOL      0.095863
    180 H87        -6.8630    1.6380   -4.1540 h1        1 MOL      0.095863
    181 H88        -5.9050    0.2420   -4.7050 h1        1 MOL      0.095863
    182 H89        -5.6580   -0.0110   -2.0560 hn        1 MOL      0.150804
    183 Ca1         1.8170   -0.7400    1.1300 Ca        1 MOL      1.699042
    184 O25         0.4260   -0.1440    3.3440 oh        1 MOL     -0.806793
    185 H90         0.8990    0.6570    3.5680 ho        1 MOL      0.381537
    186 H91        -0.0170   -0.3880    4.1600 ho        1 MOL      0.381537
    187 O26         0.8250   -3.0240    2.0060 oh        1 MOL     -0.806793
    188 H92         1.1130   -3.9250    1.9590 ho        1 MOL      0.381537
    189 H93         0.2270   -2.9930    2.7510 ho        1 MOL      0.381537
@<TRIPOS>BOND
     1    1    2 1   
     2    1    4 1   
     3    1    5 1   
     4    1    6 1   
     5    2    3 2   
     6    2    7 1   
     7    7    8 1   
     8    7   15 1   
     9    8    9 1   
    10    8   11 1   
    11    8   16 1   
    12    9   10 2   
    13    9   19 1   
    14   11   12 1   
    15   11   17 1   
    16   11   18 1   
    17   12   13 1   
    18   12   14 1   
    19   19   20 1   
    20   19   28 1   
    21   20   21 1   
    22   20   23 1   
    23   20   29 1   
    24   21   22 2   
    25   21   41 1   
    26   23   24 1   
    27   23   30 1   
    28   23   31 1   
    29   24   25 1   
    30   24   32 1   
    31   24   33 1   
    32   25   26 1   
    33   25   34 1   
    34   25   35 1   
    35   26   27 1   
    36   26   36 1   
    37   26   37 1   
    38   27   38 1   
    39   27   39 1   
    40   27   40 1   
    41   41   42 1   
    42   41   49 1   
    43   42   43 1   
    44   42   45 1   
    45   42   50 1   
    46   43   44 2   
    47   43   53 1   
    48   45   46 1   
    49   45   51 1   
    50   45   52 1   
    51   46   47 1   
    52   46   48 1   
    53   53   54 1   
    54   53   57 1   
    55   54   55 1   
    56   54   58 1   
    57   54   59 1   
    58   55   56 2   
    59   55   60 1   
    60   60   61 1   
    61   60   68 1   
    62   61   62 1   
    63   61   64 1   
    64   61   69 1   
    65   62   63 2   
    66   62   72 1   
    67   64   65 1   
    68   64   70 1   
    69   64   71 1   
    70   65   66 1   
    71   65   67 1   
    72   72   73 1   
    73   72   76 1   
    74   73   74 1   
    75   73   77 1   
    76   73   78 1   
    77   74   75 2   
    78   74   79 1   
    79   79   80 1   
    80   79   86 1   
    81   80   81 1   
    82   80   83 1   
    83   80   87 1   
    84   81   82 2   
    85   81   93 1   
    86   83   84 1   
    87   83   85 1   
    88   83   88 1   
    89   84   90 1   
    90   84   91 1   
    91   84   92 1   
    92   85   89 1   
    93   93   94 1   
    94   93  101 1   
    95   94   95 1   
    96   94   97 1   
    97   94  102 1   
    98   95   96 2   
    99   95  112 1   
   100   97   98 1   
   101   97   99 1   
   102   97  103 1   
   103   98  100 1   
   104   98  104 1   
   105   98  105 1   
   106   99  106 1   
   107   99  107 1   
   108   99  108 1   
   109  100  109 1   
   110  100  110 1   
   111  100  111 1   
   112  112  113 1   
   113  112  119 1   
   114  113  114 1   
   115  113  116 1   
   116  113  120 1   
   117  114  115 2   
   118  114  126 1   
   119  116  117 1   
   120  116  118 1   
   121  116  121 1   
   122  117  123 1   
   123  117  124 1   
   124  117  125 1   
   125  118  122 1   
   126  126  127 1   
   127  126  133 1   
   128  127  128 1   
   129  127  130 1   
   130  127  134 1   
   131  128  129 2   
   132  128  140 1   
   133  130  131 1   
   134  130  132 1   
   135  130  135 1   
   136  131  137 1   
   137  131  138 1   
   138  131  139 1   
   139  132  136 1   
   140  140  141 1   
   141  140  149 1   
   142  141  142 1   
   143  141  144 1   
   144  141  150 1   
   145  142  143 2   
   146  142  162 1   
   147  144  145 1   
   148  144  151 1   
   149  144  152 1   
   150  145  146 1   
   151  145  153 1   
   152  145  154 1   
   153  146  147 1   
   154  146  155 1   
   155  146  156 1   
   156  147  148 1   
   157  147  157 1   
   158  147  158 1   
   159  148  159 1   
   160  148  160 1   
   161  148  161 1   
   162  162  163 1   
   163  162  171 1   
   164  163  164 1   
   165  163  166 1   
   166  163  172 1   
   167  164  165 2   
   168  164  177 1   
   169  166  167 1   
   170  166  173 1   
   171  166  174 1   
   172  167  168 1   
   173  167  175 1   
   174  167  176 1   
   175  168  169 1   
   176  168  170 1   
   177  177  178 1   
   178  177  182 1   
   179  178  179 1   
   180  178  180 1   
   181  178  181 1   
   182  184  185 1   
   183  184  186 1   
   184  187  188 1   
   185  187  189 1   
@<TRIPOS>SUBSTRUCTURE
     1 MOL         1 TEMP              0 ****  ****    0 ROOT
