@<TRIPOS>MOLECULE
MOL
  172   171     1     0     0
SMALL
resp


@<TRIPOS>ATOM
      1 C1          0.1800    2.9330    6.0250 c3        1 MOL     -0.378232
      2 C2         -0.2760    2.7630    4.5220 c         1 MOL      0.699582
      3 O1          0.3070    3.3450    3.5970 o         1 MOL     -0.576347
      4 H1          1.0450    3.5940    6.0690 hc        1 MOL      0.094851
      5 H2         -0.6360    3.3640    6.6060 hc        1 MOL      0.094851
      6 H3          0.4440    1.9590    6.4370 hc        1 MOL      0.094851
      7 N1         -1.3440    1.9530    4.2680 n         1 MOL     -0.617728
      8 C3         -1.9350    1.8120    2.9210 c3        1 MOL      0.249415
      9 C4         -2.3660    3.1490    2.3460 c         1 MOL      0.470425
     10 O2         -3.2920    3.8020    2.8300 o         1 MOL     -0.605606
     11 C5         -3.1180    0.8380    2.9100 c3        1 MOL     -0.063475
     12 C6         -3.6830    0.5320    1.5280 c         1 MOL      0.437059
     13 O3         -4.6400   -0.2400    1.4380 o         1 MOL     -0.531080
     14 O4         -3.2240    1.1160    0.5110 o         1 MOL     -0.531080
     15 H4         -1.8350    1.4670    5.0050 hn        1 MOL      0.295630
     16 H5         -1.1740    1.3520    2.3010 h1        1 MOL      0.009159
     17 H6         -3.9040    1.2000    3.5730 hc        1 MOL      0.019043
     18 H7         -2.7750   -0.0940    3.3480 hc        1 MOL      0.019043
     19 N2         -1.6240    3.6470    1.3060 n         1 MOL     -0.170961
     20 C7         -1.7190    5.0070    0.6940 c3        1 MOL      0.038072
     21 C8         -2.6860    5.1730   -0.5880 c         1 MOL      0.444524
     22 O5         -3.0780    6.2680   -0.8070 o         1 MOL     -0.564483
     23 C9         -0.2480    5.3800    0.2900 c3        1 MOL     -0.284056
     24 H8         -1.0130    3.0100    0.8080 hn        1 MOL      0.306525
     25 H9         -1.9760    5.7360    1.4540 h1        1 MOL      0.061163
     26 H10        -0.2940    6.4300    0.0030 hc        1 MOL      0.066084
     27 H11         0.3980    5.1290    1.1390 hc        1 MOL      0.066084
     28 H12         0.1020    4.8070   -0.5720 hc        1 MOL      0.066084
     29 N3         -2.9850    4.1250   -1.3240 n         1 MOL     -0.154616
     30 C10        -4.1420    4.1640   -2.2260 c3        1 MOL     -0.026905
     31 C11        -5.3810    3.4670   -1.6370 c         1 MOL      0.380110
     32 O6         -6.3890    3.5140   -2.2640 o         1 MOL     -0.512923
     33 C12        -3.8600    3.5740   -3.6220 c3        1 MOL     -0.033853
     34 C13        -3.1700    2.2110   -3.6950 c         1 MOL      0.713460
     35 O7         -2.7840    1.7490   -4.8130 o         1 MOL     -0.725760
     36 O8         -2.9580    1.5250   -2.6780 o         1 MOL     -0.725760
     37 H13        -2.5780    3.2370   -1.0710 hn        1 MOL      0.099065
     38 H14        -4.3610    5.2000   -2.4760 h1        1 MOL      0.094845
     39 H15        -3.1940    4.2770   -4.1280 hc        1 MOL     -0.006505
     40 H16        -4.7390    3.5670   -4.2680 hc        1 MOL     -0.006505
     41 N4         -5.2610    2.8440   -0.4590 n         1 MOL      0.048193
     42 C14        -6.3390    2.6680    0.4420 c3        1 MOL     -0.226120
     43 C15        -7.2430    1.4670   -0.0720 c         1 MOL      0.529964
     44 O9         -8.4110    1.6100   -0.2230 o         1 MOL     -0.566914
     45 H17        -4.2860    2.7530   -0.1990 hn        1 MOL      0.003658
     46 H18        -7.0360    3.5040    0.4010 h1        1 MOL      0.095186
     47 H19        -5.9850    2.5220    1.4620 h1        1 MOL      0.095186
     48 N5         -6.5720    0.3770   -0.4660 n         1 MOL     -0.199545
     49 C16        -7.2550   -0.7420   -1.2190 c3        1 MOL     -0.024120
     50 C17        -7.2650   -2.0370   -0.3890 c         1 MOL      0.366259
     51 O10        -7.9870   -3.0060   -0.7650 o         1 MOL     -0.585002
     52 C18        -6.4090   -0.7880   -2.5510 c3        1 MOL     -0.105315
     53 C19        -5.0420   -1.4910   -2.5800 c         1 MOL      0.439913
     54 N6         -4.6370   -1.9820   -3.6730 n         1 MOL     -0.576821
     55 O11        -4.1520   -1.3910   -1.6920 o         1 MOL     -0.475337
     56 H20        -5.5710    0.2780   -0.3750 hn        1 MOL      0.038573
     57 H21        -8.2800   -0.4720   -1.4670 h1        1 MOL      0.120832
     58 H22        -6.1780    0.2350   -2.8390 hc        1 MOL      0.071463
     59 H23        -7.0470   -1.2060   -3.3310 hc        1 MOL      0.071463
     60 H24        -5.2860   -2.1780   -4.4150 hn        1 MOL      0.315523
     61 H25        -3.7110   -2.4020   -3.7220 hn        1 MOL      0.315523
     62 N7         -6.6500   -2.1230    0.7440 n         1 MOL     -0.020059
     63 C20        -6.5520   -3.2520    1.6860 c3        1 MOL     -0.296102
     64 C21        -5.3480   -4.1810    1.5200 c         1 MOL      0.604694
     65 O12        -5.4630   -5.2990    2.0330 o         1 MOL     -0.574348
     66 H26        -6.1480   -1.2900    1.0160 hn        1 MOL      0.096956
     67 H27        -7.4460   -3.8770    1.5730 h1        1 MOL      0.125333
     68 H28        -6.5040   -2.7380    2.6400 h1        1 MOL      0.125333
     69 N8         -4.2400   -3.6820    0.9280 n         1 MOL     -0.225178
     70 C22        -2.9670   -4.3790    0.8310 c3        1 MOL     -0.207918
     71 C23        -1.8220   -3.3420    0.8490 c         1 MOL      0.569398
     72 O13        -1.9750   -2.1230    0.4730 o         1 MOL     -0.522268
     73 C24        -2.8010   -5.1160   -0.5290 c3        1 MOL      0.398733
     74 C25        -3.3450   -6.5310   -0.4420 c3        1 MOL     -0.362773
     75 O14        -3.4630   -4.4160   -1.5720 oh        1 MOL     -0.675362
     76 H29        -4.3070   -2.7410    0.5560 hn        1 MOL      0.164566
     77 H30        -2.7800   -4.9980    1.6990 h1        1 MOL      0.106999
     78 H31        -1.7230   -5.1750   -0.7080 h1        1 MOL      0.042788
     79 H32        -4.4090   -4.4570   -1.4370 ho        1 MOL      0.430172
     80 H33        -3.1280   -7.1080   -1.3450 hc        1 MOL      0.085380
     81 H34        -2.8340   -7.1150    0.3220 hc        1 MOL      0.085380
     82 H35        -4.4000   -6.5600   -0.1710 hc        1 MOL      0.085380
     83 N9         -0.6810   -3.7510    1.3910 n         1 MOL     -0.441421
     84 C26         0.5060   -2.8740    1.5300 c3        1 MOL      0.025003
     85 C27         1.5350   -3.0640    0.3310 c         1 MOL      0.474638
     86 O15         2.0930   -4.1350    0.1580 o         1 MOL     -0.580437
     87 C28         1.2070   -3.1350    2.9080 c3        1 MOL      0.087275
     88 C29         0.2730   -2.7990    4.1280 c3        1 MOL      0.187427
     89 C30         2.4530   -2.2450    3.0210 c3        1 MOL     -0.222288
     90 C31         1.0350   -3.3840    5.3220 c3        1 MOL     -0.195068
     91 H36        -0.5480   -4.7030    1.6870 hn        1 MOL      0.269172
     92 H37         0.1450   -1.8580    1.4110 h1        1 MOL      0.018940
     93 H38         1.5460   -4.1720    2.8720 hc        1 MOL      0.008276
     94 H39        -0.6770   -3.3380    4.0690 hc        1 MOL     -0.038847
     95 H40         0.0720   -1.7380    4.1820 hc        1 MOL     -0.038847
     96 H41         2.1610   -1.2470    3.3670 hc        1 MOL      0.052940
     97 H42         3.2760   -2.5240    3.6810 hc        1 MOL      0.052940
     98 H43         3.0030   -2.1070    2.0950 hc        1 MOL      0.052940
     99 H44         1.2920   -4.4070    5.0400 hc        1 MOL      0.028312
    100 H45         1.9530   -2.8090    5.4680 hc        1 MOL      0.028312
    101 H46         0.3850   -3.4150    6.1990 hc        1 MOL      0.028312
    102 N10         1.8360   -1.9700   -0.3430 n         1 MOL     -0.171983
    103 C32         2.7600   -1.9300   -1.5300 c3        1 MOL      0.104116
    104 C33         4.2010   -1.6570   -1.0320 c         1 MOL      0.431430
    105 O16         4.3460   -1.3560    0.1070 o         1 MOL     -0.324568
    106 C34         2.3740   -0.8800   -2.5550 c3        1 MOL     -0.469845
    107 C35         0.9390   -1.0250   -3.0420 c         1 MOL      0.855878
    108 O17         0.5050   -2.0490   -3.5860 o         1 MOL     -0.726371
    109 O18         0.0500   -0.1530   -2.7660 o         1 MOL     -0.726371
    110 H47         1.6010   -1.0650    0.0210 hn        1 MOL      0.124643
    111 H48         2.7240   -2.9350   -1.9460 h1        1 MOL      0.056359
    112 H49         3.1070   -1.0030   -3.3530 hc        1 MOL      0.111974
    113 H50         2.5870    0.1260   -2.1880 hc        1 MOL      0.111974
    114 N11         5.2200   -1.6480   -1.8860 n         1 MOL     -0.578624
    115 C36         6.5540   -1.4360   -1.4160 c3        1 MOL      0.287716
    116 C37         6.7960   -0.0670   -0.7090 c         1 MOL      0.341581
    117 O19         7.3380   -0.1100    0.3960 o         1 MOL     -0.470324
    118 C38         7.5090   -1.6600   -2.6010 c3        1 MOL     -0.251933
    119 C39         8.8850   -1.4450   -2.2150 ca        1 MOL      0.298875
    120 C40         9.5020   -2.3820   -1.3670 ca        1 MOL     -0.308990
    121 C41         9.6730   -0.4280   -2.7920 ca        1 MOL     -0.308990
    122 C42        10.7880   -2.1870   -0.8620 ca        1 MOL     -0.027811
    123 C43        10.9780   -0.2660   -2.2900 ca        1 MOL     -0.027811
    124 C44        11.5320   -1.0940   -1.3550 ca        1 MOL     -0.179468
    125 H51         4.9520   -1.6650   -2.8610 hn        1 MOL      0.312963
    126 H52         6.7720   -2.1650   -0.6300 h1        1 MOL      0.058837
    127 H53         7.2820   -0.9740   -3.4190 hc        1 MOL      0.070902
    128 H54         7.4520   -2.6650   -3.0250 hc        1 MOL      0.070902
    129 H55         8.9050   -3.2120   -1.0180 ha        1 MOL      0.145792
    130 H56         9.2150    0.2240   -3.5240 ha        1 MOL      0.145792
    131 H57        11.3030   -2.8200   -0.1640 ha        1 MOL      0.096934
    132 H58        11.4890    0.6440   -2.5710 ha        1 MOL      0.096934
    133 H59        12.5370   -0.9240   -0.9940 ha        1 MOL      0.110631
    134 N12         6.4040    1.1590   -1.2510 n         1 MOL     -0.100407
    135 C45         6.6310    2.4380   -0.6020 c3        1 MOL     -0.198748
    136 C46         5.7430    2.7180    0.6030 c         1 MOL      0.494524
    137 O20         5.8240    3.7700    1.2940 o         1 MOL     -0.538176
    138 C47         6.4530    3.4960   -1.7540 c3        1 MOL      0.042832
    139 C48         5.3980    2.8270   -2.6650 c3        1 MOL     -0.087133
    140 C49         5.6650    1.3250   -2.5020 c3        1 MOL      0.048881
    141 H60         7.6250    2.4520   -0.1430 h1        1 MOL      0.111188
    142 H61         6.2240    4.4860   -1.3610 hc        1 MOL      0.024451
    143 H62         7.3810    3.5510   -2.3170 hc        1 MOL      0.024451
    144 H63         4.4250    3.0930   -2.2360 hc        1 MOL      0.048182
    145 H64         5.5850    3.0460   -3.7120 hc        1 MOL      0.048182
    146 H65         4.6930    0.8550   -2.3970 h1        1 MOL      0.017201
    147 H66         6.2520    0.9090   -3.3250 h1        1 MOL      0.017201
    148 N13         4.7990    1.8000    0.8740 n         1 MOL     -0.281057
    149 C50         3.8900    1.8200    2.0290 c3        1 MOL     -0.095948
    150 C51         4.5450    0.9520    3.1850 c         1 MOL      0.443374
    151 O21         4.4650    1.3160    4.3300 o         1 MOL     -0.547727
    152 C52         2.5040    1.2670    1.6060 c3        1 MOL     -0.052602
    153 C53         1.8790    1.9590    0.3660 c3        1 MOL      0.074913
    154 C54         0.5340    1.4040    0.0370 c         1 MOL      0.363314
    155 O22         0.3120    0.2040    0.2190 o         1 MOL     -0.614288
    156 O23        -0.3890    2.0030   -0.5390 o         1 MOL     -0.614288
    157 H67         4.8510    0.9710    0.2840 hn        1 MOL      0.244549
    158 H68         3.8440    2.8240    2.4340 h1        1 MOL      0.128898
    159 H69         1.8820    1.2830    2.5020 hc        1 MOL      0.060733
    160 H70         2.6610    0.2310    1.3210 hc        1 MOL      0.060733
    161 H71         2.5610    2.0240   -0.4780 hc        1 MOL      0.028148
    162 H72         1.6820    2.9880    0.6920 hc        1 MOL      0.028148
    163 N14         5.3810   -0.0220    2.8370 n         1 MOL      0.015656
    164 C55         6.1920   -0.8030    3.7580 c3        1 MOL     -0.208223
    165 H73         7.0860   -0.2380    4.0220 h1        1 MOL      0.080016
    166 H74         5.6170   -1.0150    4.6590 h1        1 MOL      0.080016
    167 H75         6.4830   -1.7400    3.2820 h1        1 MOL      0.080016
    168 H76         5.4340   -0.2240    1.8550 hn        1 MOL     -0.019994
    169 Ca1        -1.8110   -0.2070   -1.1760 Ca        1 MOL      1.700578
    170 O24        -1.5980   -2.5970   -2.2420 oh        1 MOL     -0.949689
    171 H77        -2.0650   -3.4110   -2.4140 ho        1 MOL      0.444827
    172 H78        -0.8590   -2.6040   -2.8430 ho        1 MOL      0.444827
@<TRIPOS>BOND
     1    1    2 1   
     2    1    4 1   
     3    1    5 1   
     4    1    6 1   
     5    2    3 2   
     6    2    7 1   
     7    7    8 1   
     8    7   15 1   
     9    8    9 1   
    10    8   11 1   
    11    8   16 1   
    12    9   10 2   
    13    9   19 1   
    14   11   12 1   
    15   11   17 1   
    16   11   18 1   
    17   12   13 1   
    18   12   14 1   
    19   19   20 1   
    20   19   24 1   
    21   20   21 1   
    22   20   23 1   
    23   20   25 1   
    24   21   22 2   
    25   21   29 1   
    26   23   26 1   
    27   23   27 1   
    28   23   28 1   
    29   29   30 1   
    30   29   37 1   
    31   30   31 1   
    32   30   33 1   
    33   30   38 1   
    34   31   32 2   
    35   31   41 1   
    36   33   34 1   
    37   33   39 1   
    38   33   40 1   
    39   34   35 1   
    40   34   36 1   
    41   41   42 1   
    42   41   45 1   
    43   42   43 1   
    44   42   46 1   
    45   42   47 1   
    46   43   44 2   
    47   43   48 1   
    48   48   49 1   
    49   48   56 1   
    50   49   50 1   
    51   49   52 1   
    52   49   57 1   
    53   50   51 2   
    54   50   62 1   
    55   52   53 1   
    56   52   58 1   
    57   52   59 1   
    58   53   54 1   
    59   53   55 2   
    60   54   60 1   
    61   54   61 1   
    62   62   63 1   
    63   62   66 1   
    64   63   64 1   
    65   63   67 1   
    66   63   68 1   
    67   64   65 2   
    68   64   69 1   
    69   69   70 1   
    70   69   76 1   
    71   70   71 1   
    72   70   73 1   
    73   70   77 1   
    74   71   72 2   
    75   71   83 1   
    76   73   74 1   
    77   73   75 1   
    78   73   78 1   
    79   74   80 1   
    80   74   81 1   
    81   74   82 1   
    82   75   79 1   
    83   83   84 1   
    84   83   91 1   
    85   84   85 1   
    86   84   87 1   
    87   84   92 1   
    88   85   86 2   
    89   85  102 1   
    90   87   88 1   
    91   87   89 1   
    92   87   93 1   
    93   88   90 1   
    94   88   94 1   
    95   88   95 1   
    96   89   96 1   
    97   89   97 1   
    98   89   98 1   
    99   90   99 1   
   100   90  100 1   
   101   90  101 1   
   102  102  103 1   
   103  102  110 1   
   104  103  104 1   
   105  103  106 1   
   106  103  111 1   
   107  104  105 2   
   108  104  114 1   
   109  106  107 1   
   110  106  112 1   
   111  106  113 1   
   112  107  108 1   
   113  107  109 1   
   114  114  115 1   
   115  114  125 1   
   116  115  116 1   
   117  115  118 1   
   118  115  126 1   
   119  116  117 2   
   120  116  134 1   
   121  118  119 1   
   122  118  127 1   
   123  118  128 1   
   124  119  120 ar  
   125  119  121 ar  
   126  120  122 ar  
   127  120  129 1   
   128  121  123 ar  
   129  121  130 1   
   130  122  124 ar  
   131  122  131 1   
   132  123  124 ar  
   133  123  132 1   
   134  124  133 1   
   135  134  135 1   
   136  134  140 1   
   137  135  136 1   
   138  135  138 1   
   139  135  141 1   
   140  136  137 2   
   141  136  148 1   
   142  138  139 1   
   143  138  142 1   
   144  138  143 1   
   145  139  140 1   
   146  139  144 1   
   147  139  145 1   
   148  140  146 1   
   149  140  147 1   
   150  148  149 1   
   151  148  157 1   
   152  149  150 1   
   153  149  152 1   
   154  149  158 1   
   155  150  151 2   
   156  150  163 1   
   157  152  153 1   
   158  152  159 1   
   159  152  160 1   
   160  153  154 1   
   161  153  161 1   
   162  153  162 1   
   163  154  155 1   
   164  154  156 1   
   165  163  164 1   
   166  163  168 1   
   167  164  165 1   
   168  164  166 1   
   169  164  167 1   
   170  170  171 1   
   171  170  172 1   
@<TRIPOS>SUBSTRUCTURE
     1 MOL         1 TEMP              0 ****  ****    0 ROOT
