@<TRIPOS>MOLECULE
MOL
  189   185     1     0     0
SMALL
resp


@<TRIPOS>ATOM
      1 C1         -0.4790    2.6560    5.9820 c3        1 MOL     -0.375285
      2 C2         -0.6050    1.9180    4.6610 c         1 MOL      0.818657
      3 O1          0.4330    1.7180    4.0170 o         1 MOL     -0.612089
      4 H1         -0.9770    3.6230    5.9070 hc        1 MOL      0.089661
      5 H2         -0.9470    2.0690    6.7720 hc        1 MOL      0.089661
      6 H3          0.5750    2.8070    6.2160 hc        1 MOL      0.089661
      7 N1         -1.8500    1.7150    4.1290 n         1 MOL     -0.689018
      8 C3         -2.1500    1.6370    2.7280 c3        1 MOL      0.072821
      9 C4         -2.3210    3.0490    2.1060 c         1 MOL      0.410774
     10 O2         -2.9150    4.0140    2.6650 o         1 MOL     -0.548911
     11 C5         -3.4500    0.8820    2.7090 c3        1 MOL     -0.011815
     12 C6         -4.1430    0.7570    1.3020 c         1 MOL      0.771738
     13 O3         -3.4220    0.3430    0.3650 o         1 MOL     -0.656788
     14 O4         -5.3620    0.9890    1.1360 o         1 MOL     -0.656788
     15 H4         -2.5840    1.7890    4.8160 hn        1 MOL      0.355735
     16 H5         -1.4970    1.0360    2.1010 h1        1 MOL      0.014635
     17 H6         -4.2000    1.2880    3.3960 hc        1 MOL      0.000125
     18 H7         -3.2340   -0.1300    3.0200 hc        1 MOL      0.000125
     19 N2         -1.7330    3.2660    0.8910 n         1 MOL     -0.045441
     20 C7         -1.4520    4.6340    0.4000 c3        1 MOL     -0.016213
     21 C8         -2.1510    4.9190   -0.9390 c         1 MOL      0.533682
     22 O5         -2.2610    6.0780   -1.2820 o         1 MOL     -0.566188
     23 C9          0.1030    4.8910    0.3660 c3        1 MOL     -0.047773
     24 C10         0.8670    4.8460    1.7150 c3        1 MOL     -0.003321
     25 C11         0.4340    5.9080    2.7670 c3        1 MOL     -0.082996
     26 C12         1.2670    6.1880    4.0340 c3        1 MOL      0.077661
     27 N3          0.5640    7.1360    4.9480 n4        1 MOL     -0.443232
     28 H8         -1.4050    2.4670    0.3680 hn        1 MOL      0.082815
     29 H9         -1.8670    5.3550    1.0980 h1        1 MOL      0.047210
     30 H10         0.2750    5.9040   -0.0050 hc        1 MOL      0.020702
     31 H11         0.5420    4.1610   -0.3120 hc        1 MOL      0.020702
     32 H12         1.9290    5.0190    1.5670 hc        1 MOL      0.037116
     33 H13         0.8360    3.8290    2.1140 hc        1 MOL      0.037116
     34 H14        -0.5880    5.6800    3.0610 hc        1 MOL      0.043139
     35 H15         0.3580    6.8530    2.2200 hc        1 MOL      0.043139
     36 H16         2.2030    6.6200    3.7000 hx        1 MOL      0.078721
     37 H17         1.4930    5.2520    4.5590 hx        1 MOL      0.078721
     38 H18         0.4010    7.9900    4.4220 hn        1 MOL      0.348766
     39 H19        -0.2840    6.6970    5.2630 hn        1 MOL      0.348766
     40 H20         1.1120    7.3550    5.7670 hn        1 MOL      0.348766
     41 N4         -2.7670    3.9270   -1.6160 n         1 MOL     -0.332074
     42 C13        -3.5780    4.0640   -2.8370 c3        1 MOL      0.080425
     43 C14        -5.0420    3.6870   -2.6510 c         1 MOL      0.556751
     44 O6         -5.8700    3.9690   -3.4890 o         1 MOL     -0.519854
     45 C15        -2.7540    3.5560   -4.0790 c3        1 MOL     -0.054338
     46 C16        -2.2150    2.1650   -4.0140 c         1 MOL      0.789957
     47 O7         -2.4220    1.4550   -3.0490 o         1 MOL     -0.723211
     48 O8         -1.6460    1.6510   -5.0310 o         1 MOL     -0.723211
     49 H21        -2.7000    3.0040   -1.2230 hn        1 MOL      0.133094
     50 H22        -3.6700    5.1170   -3.1010 h1        1 MOL      0.042252
     51 H23        -1.8930    4.1970   -4.2810 hc        1 MOL      0.011425
     52 H24        -3.3900    3.5890   -4.9580 hc        1 MOL      0.011425
     53 N5         -5.3350    3.0960   -1.4500 n         1 MOL     -0.450891
     54 C17        -6.6730    2.5950   -1.1900 c3        1 MOL      0.221658
     55 C18        -7.0890    1.2440   -1.7270 c         1 MOL      0.367097
     56 O9         -7.9160    1.1890   -2.6170 o         1 MOL     -0.503588
     57 H25        -4.6530    3.0030   -0.7040 hn        1 MOL      0.205705
     58 H26        -7.4660    3.2960   -1.4570 h1        1 MOL      0.005834
     59 H27        -6.8600    2.7150   -0.1260 h1        1 MOL      0.005834
     60 N6         -6.4040    0.1440   -1.3060 n         1 MOL     -0.109591
     61 C19        -6.9530   -1.1820   -1.4760 c3        1 MOL      0.084143
     62 C20        -7.0620   -2.0240   -0.1780 c         1 MOL      0.212747
     63 O10        -7.7120   -3.1200   -0.2090 o         1 MOL     -0.476448
     64 C21        -6.2100   -1.8960   -2.5910 c3        1 MOL     -0.127486
     65 C22        -4.7340   -1.9010   -2.3480 c         1 MOL      0.688413
     66 O11        -4.2030   -2.3360   -1.3830 o         1 MOL     -0.704455
     67 O12        -4.0620   -1.2630   -3.1640 o         1 MOL     -0.704455
     68 H28        -5.6190    0.1890   -0.6820 hn        1 MOL      0.002908
     69 H29        -7.9540   -1.0900   -1.9050 h1        1 MOL      0.073614
     70 H30        -6.5120   -1.4720   -3.5480 hc        1 MOL      0.040212
     71 H31        -6.6180   -2.9120   -2.5350 hc        1 MOL      0.040212
     72 N7         -6.4090   -1.5830    0.8990 n         1 MOL      0.018727
     73 C23        -6.2630   -2.3550    2.1450 c3        1 MOL     -0.180130
     74 C24        -5.3660   -3.6190    1.9310 c         1 MOL      0.484832
     75 O13        -5.5770   -4.7110    2.3600 o         1 MOL     -0.525356
     76 H32        -6.0600   -0.6380    0.8500 hn        1 MOL      0.084386
     77 H33        -7.2370   -2.7290    2.4610 h1        1 MOL      0.080959
     78 H34        -5.8710   -1.6720    2.9010 h1        1 MOL      0.080959
     79 N8         -4.3070   -3.4040    1.1510 n         1 MOL     -0.032089
     80 C25        -3.0750   -4.2210    1.0730 c3        1 MOL     -0.451484
     81 C26        -1.8270   -3.3750    0.9760 c         1 MOL      0.758786
     82 O14        -1.9070   -2.2940    0.4370 o         1 MOL     -0.598046
     83 C27        -3.0740   -5.2730   -0.0940 c3        1 MOL      0.434656
     84 C28        -4.0530   -6.4140    0.1550 c3        1 MOL     -0.505435
     85 O15        -3.3980   -4.7930   -1.3930 oh        1 MOL     -0.629975
     86 H35        -4.2800   -2.5340    0.6490 hn        1 MOL      0.086038
     87 H36        -2.9550   -4.7730    2.0040 h1        1 MOL      0.145808
     88 H37        -2.1270   -5.7950   -0.2180 h1        1 MOL      0.023057
     89 H38        -3.8450   -3.9640   -1.1950 ho        1 MOL      0.459714
     90 H39        -5.0830   -6.0650    0.0500 hc        1 MOL      0.129636
     91 H40        -3.8530   -7.2090   -0.5630 hc        1 MOL      0.129636
     92 H41        -3.9520   -6.9460    1.0990 hc        1 MOL      0.129636
     93 N9         -0.7370   -3.8710    1.6450 n         1 MOL     -0.695547
     94 C29         0.4910   -3.2290    1.7550 c3        1 MOL      0.127100
     95 C30         1.4930   -3.9130    0.8390 c         1 MOL      0.490792
     96 O16         2.0350   -4.9670    1.1080 o         1 MOL     -0.539539
     97 C31         0.8570   -2.9940    3.2980 c3        1 MOL      0.092411
     98 C32        -0.0990   -1.9340    3.9580 c3        1 MOL      0.011300
     99 C33         2.2960   -2.7420    3.5300 c3        1 MOL     -0.204817
    100 C34         0.2330   -1.5610    5.4680 c3        1 MOL     -0.266884
    101 H42        -0.8000   -4.8170    2.0060 hn        1 MOL      0.335449
    102 H43         0.4490   -2.2690    1.2420 h1        1 MOL      0.015078
    103 H44         0.6270   -3.9110    3.8320 hc        1 MOL      0.012704
    104 H45        -1.1360   -2.2570    3.9530 hc        1 MOL      0.048158
    105 H46        -0.0430   -1.0100    3.3840 hc        1 MOL      0.048158
    106 H47         2.6100   -1.8460    2.9960 hc        1 MOL      0.039013
    107 H48         2.4350   -2.5320    4.5860 hc        1 MOL      0.039013
    108 H49         2.8950   -3.5880    3.1840 hc        1 MOL      0.039013
    109 H50         0.2700   -2.4380    6.1150 hc        1 MOL      0.066882
    110 H51         1.2280   -1.1290    5.4120 hc        1 MOL      0.066882
    111 H52        -0.5260   -0.8910    5.8840 hc        1 MOL      0.066882
    112 N10         1.9910   -3.0940   -0.1380 n         1 MOL     -0.235718
    113 C35         3.0910   -3.4370   -1.0710 c3        1 MOL     -0.083366
    114 C36         4.4550   -3.0400   -0.3160 c         1 MOL      0.259162
    115 O17         4.4180   -2.4020    0.7120 o         1 MOL     -0.215469
    116 C37         3.0250   -2.5300   -2.3410 c3        1 MOL      0.205468
    117 C38         1.8740   -2.9250   -3.2470 c3        1 MOL     -0.306262
    118 O18         2.7850   -1.1890   -1.9510 oh        1 MOL     -0.576175
    119 H53         1.4760   -2.2320   -0.2550 hn        1 MOL      0.230981
    120 H54         3.1490   -4.4980   -1.3020 h1        1 MOL      0.105136
    121 H55         3.9510   -2.6090   -2.9110 h1        1 MOL      0.043388
    122 H56         1.9230   -1.0970   -1.5400 ho        1 MOL      0.404386
    123 H57         1.9510   -4.0020   -3.3860 hc        1 MOL      0.083013
    124 H58         0.8550   -2.7220   -2.9060 hc        1 MOL      0.083013
    125 H59         2.0370   -2.4980   -4.2360 hc        1 MOL      0.083013
    126 N11         5.6060   -3.3400   -0.9200 n         1 MOL     -0.264970
    127 C39         6.9680   -2.9580   -0.3560 c3        1 MOL     -0.152293
    128 C40         7.2150   -1.4720   -0.2500 c         1 MOL      0.317714
    129 O19         7.7510   -0.9730    0.7570 o         1 MOL     -0.479639
    130 C41         8.1220   -3.6060   -1.1290 c3        1 MOL      0.362963
    131 C42         8.2150   -5.1180   -0.8330 c3        1 MOL     -0.471632
    132 O20         7.9510   -3.4400   -2.4920 oh        1 MOL     -0.673377
    133 H60         5.5340   -3.9440   -1.7180 hn        1 MOL      0.251214
    134 H61         7.0000   -3.2720    0.6880 h1        1 MOL      0.128716
    135 H62         9.0590   -3.2250   -0.7370 h1        1 MOL      0.057281
    136 H63         8.1000   -4.2760   -2.9400 ho        1 MOL      0.435872
    137 H64         7.9690   -5.3330    0.2040 hc        1 MOL      0.127166
    138 H65         7.5770   -5.6880   -1.5080 hc        1 MOL      0.127166
    139 H66         9.2620   -5.4230   -0.8650 hc        1 MOL      0.127166
    140 N12         6.6100   -0.7610   -1.1980 n         1 MOL     -0.039006
    141 C43         6.6860    0.6670   -1.2810 c3        1 MOL     -0.174123
    142 C44         5.9980    1.3130   -0.1350 c         1 MOL      0.376251
    143 O21         6.4660    2.2290    0.5610 o         1 MOL     -0.503422
    144 C45         6.0980    1.1480   -2.6630 c3        1 MOL     -0.098012
    145 C46         6.2390    2.6680   -2.8680 c3        1 MOL     -0.111500
    146 C47         7.7500    3.1340   -3.1070 c3        1 MOL     -0.085119
    147 C48         7.8080    4.5080   -3.7040 c3        1 MOL      0.108064
    148 N13         9.1240    4.9310   -4.1940 n4        1 MOL     -0.226476
    149 H67         6.3750   -1.2870   -2.0170 hn        1 MOL      0.190679
    150 H68         7.7330    0.9310   -1.1310 h1        1 MOL      0.119359
    151 H69         5.0390    0.9010   -2.7140 hc        1 MOL      0.072084
    152 H70         6.5700    0.6440   -3.5090 hc        1 MOL      0.072084
    153 H71         5.7890    3.2500   -2.0650 hc        1 MOL      0.076815
    154 H72         5.6350    3.0150   -3.7050 hc        1 MOL      0.076815
    155 H73         8.2820    2.4270   -3.7490 hc        1 MOL      0.050103
    156 H74         8.2960    3.1060   -2.1550 hc        1 MOL      0.050103
    157 H75         7.5000    5.3260   -3.0570 hx        1 MOL      0.057769
    158 H76         7.1260    4.5050   -4.5640 hx        1 MOL      0.057769
    159 H77         9.0220    5.6660   -4.8820 hn        1 MOL      0.271036
    160 H78         9.7960    5.2610   -3.5220 hn        1 MOL      0.271036
    161 H79         9.5220    4.1260   -4.6560 hn        1 MOL      0.271036
    162 N14         4.8310    0.7250    0.2720 n         1 MOL     -0.031183
    163 C49         4.0410    1.1390    1.3710 c3        1 MOL     -0.160170
    164 C50         4.5630    0.6800    2.7390 c         1 MOL      0.417416
    165 O22         4.5990    1.4260    3.7540 o         1 MOL     -0.563358
    166 C51         2.6280    0.6130    1.0950 c3        1 MOL      0.008553
    167 C52         1.8280    1.2290    0.0230 c3        1 MOL     -0.036426
    168 C53         0.5380    0.5640   -0.5160 c         1 MOL      0.699778
    169 O23         0.3950   -0.6500   -0.6740 o         1 MOL     -0.674648
    170 O24        -0.4260    1.2760   -0.9310 o         1 MOL     -0.674648
    171 H80         4.5260   -0.0070   -0.3510 hn        1 MOL      0.130454
    172 H81         4.1030    2.2310    1.3790 h1        1 MOL      0.080709
    173 H82         1.9720    0.7430    1.9570 hc        1 MOL      0.048212
    174 H83         2.6950   -0.4570    0.9360 hc        1 MOL      0.048212
    175 H84         2.5040    1.1430   -0.8240 hc        1 MOL     -0.019494
    176 H85         1.6070    2.2670    0.2880 hc        1 MOL     -0.019494
    177 N15         5.0340   -0.5680    2.7590 n         1 MOL      0.103734
    178 C54         5.7230   -1.1840    3.8440 c3        1 MOL     -0.339819
    179 H86         5.6230   -2.2670    3.7700 h1        1 MOL      0.107211
    180 H87         6.7780   -0.9120    3.8060 h1        1 MOL      0.107211
    181 H88         5.2940   -0.8430    4.7870 h1        1 MOL      0.107211
    182 H89         4.8760   -1.1860    1.9810 hn        1 MOL      0.025387
    183 Ca1        -2.1300   -0.5910   -1.5480 Ca        1 MOL      1.760058
    184 O25        -1.6100   -3.1090   -2.5690 oh        1 MOL     -0.894828
    185 H90        -1.3120   -3.3300   -3.4480 ho        1 MOL      0.410566
    186 H91        -2.2720   -3.7790   -2.3710 ho        1 MOL      0.410566
    187 O26        -0.5070   -0.6650   -3.9280 oh        1 MOL     -0.894828
    188 H92        -0.9190    0.1300   -4.2760 ho        1 MOL      0.410566
    189 H93         0.0230   -0.9980   -4.6530 ho        1 MOL      0.410566
@<TRIPOS>BOND
     1    1    2 1   
     2    1    4 1   
     3    1    5 1   
     4    1    6 1   
     5    2    3 2   
     6    2    7 1   
     7    7    8 1   
     8    7   15 1   
     9    8    9 1   
    10    8   11 1   
    11    8   16 1   
    12    9   10 2   
    13    9   19 1   
    14   11   12 1   
    15   11   17 1   
    16   11   18 1   
    17   12   13 1   
    18   12   14 1   
    19   19   20 1   
    20   19   28 1   
    21   20   21 1   
    22   20   23 1   
    23   20   29 1   
    24   21   22 2   
    25   21   41 1   
    26   23   24 1   
    27   23   30 1   
    28   23   31 1   
    29   24   25 1   
    30   24   32 1   
    31   24   33 1   
    32   25   26 1   
    33   25   34 1   
    34   25   35 1   
    35   26   27 1   
    36   26   36 1   
    37   26   37 1   
    38   27   38 1   
    39   27   39 1   
    40   27   40 1   
    41   41   42 1   
    42   41   49 1   
    43   42   43 1   
    44   42   45 1   
    45   42   50 1   
    46   43   44 2   
    47   43   53 1   
    48   45   46 1   
    49   45   51 1   
    50   45   52 1   
    51   46   47 1   
    52   46   48 1   
    53   53   54 1   
    54   53   57 1   
    55   54   55 1   
    56   54   58 1   
    57   54   59 1   
    58   55   56 2   
    59   55   60 1   
    60   60   61 1   
    61   60   68 1   
    62   61   62 1   
    63   61   64 1   
    64   61   69 1   
    65   62   63 2   
    66   62   72 1   
    67   64   65 1   
    68   64   70 1   
    69   64   71 1   
    70   65   66 1   
    71   65   67 1   
    72   72   73 1   
    73   72   76 1   
    74   73   74 1   
    75   73   77 1   
    76   73   78 1   
    77   74   75 2   
    78   74   79 1   
    79   79   80 1   
    80   79   86 1   
    81   80   81 1   
    82   80   83 1   
    83   80   87 1   
    84   81   82 2   
    85   81   93 1   
    86   83   84 1   
    87   83   85 1   
    88   83   88 1   
    89   84   90 1   
    90   84   91 1   
    91   84   92 1   
    92   85   89 1   
    93   93   94 1   
    94   93  101 1   
    95   94   95 1   
    96   94   97 1   
    97   94  102 1   
    98   95   96 2   
    99   95  112 1   
   100   97   98 1   
   101   97   99 1   
   102   97  103 1   
   103   98  100 1   
   104   98  104 1   
   105   98  105 1   
   106   99  106 1   
   107   99  107 1   
   108   99  108 1   
   109  100  109 1   
   110  100  110 1   
   111  100  111 1   
   112  112  113 1   
   113  112  119 1   
   114  113  114 1   
   115  113  116 1   
   116  113  120 1   
   117  114  115 2   
   118  114  126 1   
   119  116  117 1   
   120  116  118 1   
   121  116  121 1   
   122  117  123 1   
   123  117  124 1   
   124  117  125 1   
   125  118  122 1   
   126  126  127 1   
   127  126  133 1   
   128  127  128 1   
   129  127  130 1   
   130  127  134 1   
   131  128  129 2   
   132  128  140 1   
   133  130  131 1   
   134  130  132 1   
   135  130  135 1   
   136  131  137 1   
   137  131  138 1   
   138  131  139 1   
   139  132  136 1   
   140  140  141 1   
   141  140  149 1   
   142  141  142 1   
   143  141  144 1   
   144  141  150 1   
   145  142  143 2   
   146  142  162 1   
   147  144  145 1   
   148  144  151 1   
   149  144  152 1   
   150  145  146 1   
   151  145  153 1   
   152  145  154 1   
   153  146  147 1   
   154  146  155 1   
   155  146  156 1   
   156  147  148 1   
   157  147  157 1   
   158  147  158 1   
   159  148  159 1   
   160  148  160 1   
   161  148  161 1   
   162  162  163 1   
   163  162  171 1   
   164  163  164 1   
   165  163  166 1   
   166  163  172 1   
   167  164  165 2   
   168  164  177 1   
   169  166  167 1   
   170  166  173 1   
   171  166  174 1   
   172  167  168 1   
   173  167  175 1   
   174  167  176 1   
   175  168  169 1   
   176  168  170 1   
   177  177  178 1   
   178  177  182 1   
   179  178  179 1   
   180  178  180 1   
   181  178  181 1   
   182  184  185 1   
   183  184  186 1   
   184  187  188 1   
   185  187  189 1   
@<TRIPOS>SUBSTRUCTURE
     1 MOL         1 TEMP              0 ****  ****    0 ROOT
