@<TRIPOS>MOLECULE
MOL
  189   185     1     0     0
SMALL
resp


@<TRIPOS>ATOM
      1 C1          0.3440   -3.0080    6.0550 c3        1 MOL     -0.414207
      2 C2          0.8430   -2.6040    4.7280 c         1 MOL      0.788229
      3 O1          0.9890   -1.4740    4.3210 o         1 MOL     -0.603511
      4 H1         -0.6460   -3.4520    5.9510 hc        1 MOL      0.113181
      5 H2          1.0240   -3.7380    6.4930 hc        1 MOL      0.113181
      6 H3          0.2830   -2.1330    6.7030 hc        1 MOL      0.113181
      7 N1          1.3100   -3.6780    3.9940 n         1 MOL     -0.823238
      8 C3          1.8830   -3.6320    2.6680 c3        1 MOL      0.429312
      9 C4          1.6220   -4.8210    1.7910 c         1 MOL      0.309683
     10 O2          1.5790   -5.9770    2.2580 o         1 MOL     -0.568843
     11 C5          3.3460   -3.4510    2.8410 c3        1 MOL     -0.170948
     12 C6          4.1480   -2.9950    1.6150 c         1 MOL      0.557458
     13 O3          5.3540   -3.3760    1.4990 o         1 MOL     -0.620658
     14 O4          3.5610   -2.4610    0.6160 o         1 MOL     -0.620658
     15 H4          1.4140   -4.5460    4.5010 hn        1 MOL      0.346998
     16 H5          1.5730   -2.6930    2.1960 h1        1 MOL      0.205448
     17 H6          3.7980   -4.3620    3.1970 hc        1 MOL      0.026386
     18 H7          3.4410   -2.7340    3.6580 hc        1 MOL      0.026386
     19 N2          1.6960   -4.5890    0.4790 n         1 MOL      0.037473
     20 C7          1.6880   -5.5090   -0.6520 c3        1 MOL     -0.213223
     21 C8          2.8440   -5.3620   -1.6960 c         1 MOL      0.471006
     22 O5          3.2330   -6.3260   -2.4680 o         1 MOL     -0.569410
     23 C9          0.3590   -5.4710   -1.3370 c3        1 MOL      0.187001
     24 C10        -0.0020   -6.7620   -2.1050 c3        1 MOL     -0.020030
     25 C11         0.2350   -4.3090   -2.3040 c3        1 MOL     -0.462787
     26 C12        -0.2140   -7.9670   -1.2080 c3        1 MOL     -0.044798
     27 H8          1.8310   -3.6120    0.2260 hn        1 MOL     -0.077570
     28 H9          1.8830   -6.5170   -0.3020 h1        1 MOL      0.121171
     29 H10        -0.4180   -5.2860   -0.5930 hc        1 MOL      0.023123
     30 H11         0.7640   -6.9920   -2.8420 hc        1 MOL      0.002757
     31 H12        -0.9110   -6.5670   -2.6720 hc        1 MOL      0.002757
     32 H13         0.8490   -4.4210   -3.1970 hc        1 MOL      0.136432
     33 H14        -0.8190   -4.2410   -2.5740 hc        1 MOL      0.136432
     34 H15         0.5820   -3.3960   -1.8390 hc        1 MOL      0.136432
     35 H16        -1.1110   -7.8300   -0.6070 hc        1 MOL     -0.002803
     36 H17        -0.3610   -8.8780   -1.7870 hc        1 MOL     -0.002803
     37 H18         0.5810   -8.1920   -0.5110 hc        1 MOL     -0.002803
     38 N3          3.5580   -4.2470   -1.7060 n         1 MOL     -0.303167
     39 C13         4.4760   -3.7860   -2.8470 c3        1 MOL     -0.063737
     40 C14         5.8020   -3.0840   -2.5090 c         1 MOL      0.300502
     41 O6          6.7600   -2.8090   -3.3490 o         1 MOL     -0.536174
     42 C15         3.6470   -2.8330   -3.7480 c3        1 MOL     -0.005082
     43 C16         2.9320   -1.6770   -3.0670 c         1 MOL      0.644395
     44 O7          3.3070   -1.2790   -1.9590 o         1 MOL     -0.682935
     45 O8          1.9540   -1.1470   -3.6950 o         1 MOL     -0.682935
     46 H19         3.4120   -3.6500   -0.9050 hn        1 MOL      0.316208
     47 H20         4.8240   -4.6780   -3.3710 h1        1 MOL      0.122300
     48 H21         2.9410   -3.3830   -4.3610 hc        1 MOL      0.011119
     49 H22         4.2340   -2.4190   -4.5660 hc        1 MOL      0.011119
     50 N4          5.9310   -2.6520   -1.1760 n         1 MOL      0.002724
     51 C17         7.1370   -2.0610   -0.6610 c3        1 MOL     -0.249470
     52 C18         7.4610   -0.6200   -1.0520 c         1 MOL      0.559621
     53 O9          8.5890   -0.1500   -0.9870 o         1 MOL     -0.606315
     54 H23         5.1380   -2.8270   -0.5710 hn        1 MOL      0.093224
     55 H24         7.9900   -2.6400   -1.0080 h1        1 MOL      0.085014
     56 H25         7.0340   -2.0360    0.4200 h1        1 MOL      0.085014
     57 N5          6.4270    0.0510   -1.6080 n         1 MOL     -0.154540
     58 C19         6.6620    1.3020   -2.3780 c3        1 MOL     -0.194772
     59 C20         7.0960    2.4750   -1.4850 c         1 MOL      0.624959
     60 O10         7.7030    3.3970   -2.0000 o         1 MOL     -0.571936
     61 C21         5.4010    1.7500   -3.1850 c3        1 MOL     -0.283293
     62 C22         4.1300    1.8950   -2.4090 c         1 MOL      0.660291
     63 O11         4.0130    1.5990   -1.1920 o         1 MOL     -0.661338
     64 O12         3.1170    2.2730   -3.0460 o         1 MOL     -0.661338
     65 H26         5.4760   -0.2540   -1.4380 hn        1 MOL      0.222188
     66 H27         7.5470    1.1740   -2.9950 h1        1 MOL      0.130017
     67 H28         5.1700    0.9450   -3.8750 hc        1 MOL      0.115626
     68 H29         5.5510    2.6140   -3.8260 hc        1 MOL      0.115626
     69 N6          6.7970    2.4000   -0.1490 n         1 MOL     -0.422045
     70 C23         7.1090    3.5600    0.7710 c3        1 MOL     -0.107050
     71 C24         5.8980    4.5200    1.0430 c         1 MOL      0.500339
     72 O13         6.0810    5.5460    1.7020 o         1 MOL     -0.578699
     73 H30         6.3230    1.5800    0.2060 hn        1 MOL      0.254055
     74 H31         8.0040    4.1010    0.4430 h1        1 MOL      0.093282
     75 H32         7.4240    3.1900    1.7470 h1        1 MOL      0.093282
     76 N7          4.6690    4.1320    0.5860 n         1 MOL     -0.395271
     77 C25         3.3710    4.7510    1.0100 c3        1 MOL      0.268265
     78 C26         2.4490    3.6260    1.5780 c         1 MOL      0.211435
     79 O14         2.6870    2.4260    1.3170 o         1 MOL     -0.414685
     80 C27         2.8040    5.4960   -0.2170 c3        1 MOL      0.031439
     81 C28         3.7000    6.6240   -0.7750 c3        1 MOL     -0.278895
     82 C29         2.9450    7.5010   -1.8160 c         1 MOL      0.688436
     83 N8          2.7130    7.1640   -3.0080 n         1 MOL     -0.750429
     84 O15         2.6840    8.6220   -1.4130 o         1 MOL     -0.621900
     85 H33         4.5980    3.2530    0.0780 hn        1 MOL      0.264853
     86 H34         3.5610    5.4450    1.8250 h1        1 MOL      0.017967
     87 H35         1.9430    6.0180    0.2040 hc        1 MOL      0.006408
     88 H36         2.3800    4.8220   -0.9540 hc        1 MOL      0.006408
     89 H37         4.5720    6.1850   -1.2520 hc        1 MOL      0.094984
     90 H38         4.1240    7.2130    0.0450 hc        1 MOL      0.094984
     91 H39         2.9690    6.2400   -3.3210 hn        1 MOL      0.357176
     92 H40         2.1050    7.7630   -3.5420 hn        1 MOL      0.357176
     93 N9          1.2800    3.9360    2.1930 n         1 MOL     -0.293670
     94 C30         0.0900    3.1090    2.3680 c3        1 MOL      0.127927
     95 C31        -1.0350    3.4060    1.3430 c         1 MOL      0.273063
     96 O16        -1.3280    4.5640    1.0120 o         1 MOL     -0.574632
     97 C32        -0.5510    3.2620    3.7980 c3        1 MOL      0.390461
     98 C33        -1.5360    2.2100    4.1780 c3        1 MOL     -0.540715
     99 C34         0.5260    3.3940    4.9100 c3        1 MOL     -0.540715
    100 H41         1.1580    4.8730    2.5560 hn        1 MOL      0.222369
    101 H42         0.4590    2.1030    2.1750 h1        1 MOL      0.037016
    102 H43        -0.9820    4.2640    3.8070 hc        1 MOL     -0.041321
    103 H44        -2.3200    2.6570    4.7830 hc        1 MOL      0.118969
    104 H45        -2.0710    2.0060    3.2510 hc        1 MOL      0.118969
    105 H46        -1.1290    1.3030    4.6150 hc        1 MOL      0.118969
    106 H47         1.0350    4.3470    4.7650 hc        1 MOL      0.118969
    107 H48        -0.0350    3.4460    5.8390 hc        1 MOL      0.118969
    108 H49         1.1170    2.4870    4.8900 hc        1 MOL      0.118969
    109 N10        -1.6540    2.3700    0.7420 n         1 MOL      0.070325
    110 C35        -2.7990    2.5020   -0.1480 c3        1 MOL      0.070117
    111 C36        -4.0960    2.1430    0.5890 c         1 MOL      0.148827
    112 O17        -3.9780    1.5900    1.7190 o         1 MOL     -0.300282
    113 C37        -2.4550    1.6240   -1.3030 c3        1 MOL     -0.435226
    114 C38        -3.6210    1.2780   -2.2470 c         1 MOL      0.743224
    115 N11        -4.3240    2.2230   -2.8530 n         1 MOL     -0.812923
    116 O18        -3.8950    0.1010   -2.4010 o         1 MOL     -0.506385
    117 H50        -1.2770    1.4380    0.8470 hn        1 MOL      0.229707
    118 H51        -2.8390    3.5580   -0.4050 h1        1 MOL      0.051285
    119 H52        -2.0310    0.6650   -1.0070 hc        1 MOL      0.146455
    120 H53        -1.6220    2.1050   -1.8150 hc        1 MOL      0.146455
    121 H54        -4.2110    3.2220   -2.7900 hn        1 MOL      0.356362
    122 H55        -4.9810    1.9710   -3.5670 hn        1 MOL      0.356362
    123 N12        -5.2990    2.4060    0.0680 n         1 MOL     -0.182996
    124 C39        -6.5800    2.0910    0.7310 c3        1 MOL      0.092385
    125 C40        -6.8340    0.5600    0.8150 c         1 MOL      0.378663
    126 O19        -7.5820    0.1470    1.7100 o         1 MOL     -0.537832
    127 C41        -7.7060    2.9230    0.1890 c3        1 MOL     -0.019440
    128 C42        -8.4810    2.4020   -0.9950 ca        1 MOL     -0.155795
    129 C43        -9.4510    1.4010   -0.7920 ca        1 MOL     -0.025171
    130 C44        -8.4180    3.0330   -2.2550 ca        1 MOL     -0.025171
    131 C45       -10.3660    1.0530   -1.7550 ca        1 MOL     -0.377490
    132 C46        -9.3680    2.6750   -3.2270 ca        1 MOL     -0.377490
    133 C47       -10.3270    1.7200   -3.0070 ca        1 MOL      0.488961
    134 O20       -11.2220    1.4930   -3.9540 oh        1 MOL     -0.544153
    135 H56        -5.3660    2.9750   -0.7550 hn        1 MOL      0.182775
    136 H57        -6.5420    2.5400    1.7210 h1        1 MOL      0.051646
    137 H58        -7.2740    3.8990   -0.0260 hc        1 MOL      0.032029
    138 H59        -8.4030    3.1800    0.9800 hc        1 MOL      0.032029
    139 H60        -9.4260    0.9490    0.1860 ha        1 MOL      0.107949
    140 H61        -7.7620    3.8610   -2.4560 ha        1 MOL      0.107949
    141 H62       -11.1210    0.3440   -1.4520 ha        1 MOL      0.162019
    142 H63        -9.3140    3.1670   -4.1890 ha        1 MOL      0.162019
    143 H64       -11.8280    0.7930   -3.7200 ho        1 MOL      0.396739
    144 N13        -6.0450   -0.2520    0.0690 n         1 MOL     -0.143453
    145 C48        -6.1640   -1.7580    0.0800 c3        1 MOL      0.017302
    146 C49        -5.1890   -2.4230    1.0780 c         1 MOL      0.419222
    147 O21        -5.3340   -3.5990    1.4640 o         1 MOL     -0.535911
    148 C50        -6.1790   -2.3480   -1.3460 c3        1 MOL     -0.104008
    149 C51        -7.1300   -1.6630   -2.3270 c3        1 MOL     -0.080926
    150 C52        -7.0210   -2.2540   -3.7450 c         1 MOL      0.643471
    151 O22        -7.1590   -1.4780   -4.6950 o         1 MOL     -0.716897
    152 O23        -6.9830   -3.5190   -3.8730 o         1 MOL     -0.716897
    153 H65        -5.3760    0.1530   -0.5700 hn        1 MOL      0.127439
    154 H66        -7.1160   -1.9670    0.5590 h1        1 MOL      0.089902
    155 H67        -6.4760   -3.3960   -1.2970 hc        1 MOL      0.049245
    156 H68        -5.1850   -2.2820   -1.7900 hc        1 MOL      0.049245
    157 H69        -6.9310   -0.5930   -2.3980 hc        1 MOL      0.017744
    158 H70        -8.1410   -1.7300   -1.9260 hc        1 MOL      0.017744
    159 N14        -4.2630   -1.6680    1.6700 n         1 MOL     -0.316142
    160 C53        -3.3380   -1.9670    2.8090 c3        1 MOL      0.262247
    161 C54        -3.8240   -1.2820    4.1100 c         1 MOL      0.300669
    162 O24        -3.9670   -1.9670    5.1540 o         1 MOL     -0.559084
    163 C55        -1.9760   -1.3740    2.4950 c3        1 MOL     -0.305690
    164 C56        -1.3400   -2.0310    1.2220 c3        1 MOL      0.140103
    165 C57        -0.2120   -1.1980    0.6240 c         1 MOL      0.739563
    166 O25         0.5160   -1.6240   -0.2370 o         1 MOL     -0.773901
    167 O26         0.0770   -0.0250    0.9580 o         1 MOL     -0.773901
    168 H71        -4.1750   -0.7250    1.3030 hn        1 MOL      0.170756
    169 H72        -3.3090   -3.0290    3.0590 h1        1 MOL      0.041844
    170 H73        -1.3110   -1.4310    3.3600 hc        1 MOL      0.061633
    171 H74        -2.0460   -0.2990    2.2970 hc        1 MOL      0.061633
    172 H75        -2.1090   -2.0950    0.4590 hc        1 MOL     -0.020917
    173 H76        -1.0490   -3.0750    1.3940 hc        1 MOL     -0.020917
    174 N15        -4.2920   -0.0390    4.0540 n         1 MOL      0.025885
    175 C58        -4.9260    0.6930    5.1500 c3        1 MOL     -0.126556
    176 H77        -4.8400    0.1150    6.0700 h1        1 MOL      0.053480
    177 H78        -4.4310    1.6560    5.2800 h1        1 MOL      0.053480
    178 H79        -5.9790    0.8530    4.9200 h1        1 MOL      0.053480
    179 H80        -4.2860    0.3910    3.1440 hn        1 MOL      0.009252
    180 Ca1         2.5750   -0.0730    0.1190 Ca        1 MOL      1.715534
    181 O27         2.7400   -0.2550    2.6870 oh        1 MOL     -0.898370
    182 H81         3.2350    0.4460    3.1210 ho        1 MOL      0.416958
    183 H82         2.2460   -0.6730    3.3910 ho        1 MOL      0.416958
    184 O28         1.1530    1.9060   -1.3810 oh        1 MOL     -0.898370
    185 H83         0.4490    2.0110   -2.0230 ho        1 MOL      0.416958
    186 H84         1.9600    2.0500   -1.8820 ho        1 MOL      0.416958
    187 O29         5.2670    0.1340    1.3550 oh        1 MOL     -0.898370
    188 H85         5.3380   -0.7040    1.8300 ho        1 MOL      0.416958
    189 H86         5.9870    0.6600    1.6930 ho        1 MOL      0.416958
@<TRIPOS>BOND
     1    1    2 1   
     2    1    4 1   
     3    1    5 1   
     4    1    6 1   
     5    2    3 2   
     6    2    7 1   
     7    7    8 1   
     8    7   15 1   
     9    8    9 1   
    10    8   11 1   
    11    8   16 1   
    12    9   10 2   
    13    9   19 1   
    14   11   12 1   
    15   11   17 1   
    16   11   18 1   
    17   12   13 1   
    18   12   14 1   
    19   19   20 1   
    20   19   27 1   
    21   20   21 1   
    22   20   23 1   
    23   20   28 1   
    24   21   22 2   
    25   21   38 1   
    26   23   24 1   
    27   23   25 1   
    28   23   29 1   
    29   24   26 1   
    30   24   30 1   
    31   24   31 1   
    32   25   32 1   
    33   25   33 1   
    34   25   34 1   
    35   26   35 1   
    36   26   36 1   
    37   26   37 1   
    38   38   39 1   
    39   38   46 1   
    40   39   40 1   
    41   39   42 1   
    42   39   47 1   
    43   40   41 2   
    44   40   50 1   
    45   42   43 1   
    46   42   48 1   
    47   42   49 1   
    48   43   44 1   
    49   43   45 1   
    50   50   51 1   
    51   50   54 1   
    52   51   52 1   
    53   51   55 1   
    54   51   56 1   
    55   52   53 2   
    56   52   57 1   
    57   57   58 1   
    58   57   65 1   
    59   58   59 1   
    60   58   61 1   
    61   58   66 1   
    62   59   60 2   
    63   59   69 1   
    64   61   62 1   
    65   61   67 1   
    66   61   68 1   
    67   62   63 1   
    68   62   64 1   
    69   69   70 1   
    70   69   73 1   
    71   70   71 1   
    72   70   74 1   
    73   70   75 1   
    74   71   72 2   
    75   71   76 1   
    76   76   77 1   
    77   76   85 1   
    78   77   78 1   
    79   77   80 1   
    80   77   86 1   
    81   78   79 2   
    82   78   93 1   
    83   80   81 1   
    84   80   87 1   
    85   80   88 1   
    86   81   82 1   
    87   81   89 1   
    88   81   90 1   
    89   82   83 1   
    90   82   84 2   
    91   83   91 1   
    92   83   92 1   
    93   93   94 1   
    94   93  100 1   
    95   94   95 1   
    96   94   97 1   
    97   94  101 1   
    98   95   96 2   
    99   95  109 1   
   100   97   98 1   
   101   97   99 1   
   102   97  102 1   
   103   98  103 1   
   104   98  104 1   
   105   98  105 1   
   106   99  106 1   
   107   99  107 1   
   108   99  108 1   
   109  109  110 1   
   110  109  117 1   
   111  110  111 1   
   112  110  113 1   
   113  110  118 1   
   114  111  112 2   
   115  111  123 1   
   116  113  114 1   
   117  113  119 1   
   118  113  120 1   
   119  114  115 1   
   120  114  116 2   
   121  115  121 1   
   122  115  122 1   
   123  123  124 1   
   124  123  135 1   
   125  124  125 1   
   126  124  127 1   
   127  124  136 1   
   128  125  126 2   
   129  125  144 1   
   130  127  128 1   
   131  127  137 1   
   132  127  138 1   
   133  128  129 ar  
   134  128  130 ar  
   135  129  131 ar  
   136  129  139 1   
   137  130  132 ar  
   138  130  140 1   
   139  131  133 ar  
   140  131  141 1   
   141  132  133 ar  
   142  132  142 1   
   143  133  134 1   
   144  134  143 1   
   145  144  145 1   
   146  144  153 1   
   147  145  146 1   
   148  145  148 1   
   149  145  154 1   
   150  146  147 2   
   151  146  159 1   
   152  148  149 1   
   153  148  155 1   
   154  148  156 1   
   155  149  150 1   
   156  149  157 1   
   157  149  158 1   
   158  150  151 1   
   159  150  152 1   
   160  159  160 1   
   161  159  168 1   
   162  160  161 1   
   163  160  163 1   
   164  160  169 1   
   165  161  162 2   
   166  161  174 1   
   167  163  164 1   
   168  163  170 1   
   169  163  171 1   
   170  164  165 1   
   171  164  172 1   
   172  164  173 1   
   173  165  166 1   
   174  165  167 1   
   175  174  175 1   
   176  174  179 1   
   177  175  176 1   
   178  175  177 1   
   179  175  178 1   
   180  181  182 1   
   181  181  183 1   
   182  184  185 1   
   183  184  186 1   
   184  187  188 1   
   185  187  189 1   
@<TRIPOS>SUBSTRUCTURE
     1 MOL         1 TEMP              0 ****  ****    0 ROOT
