@<TRIPOS>MOLECULE
MOL
  172   171     1     0     0
SMALL
resp


@<TRIPOS>ATOM
      1 C1          0.1220   -3.8720    5.3710 c3        1 MOL     -0.337810
      2 C2          0.6880   -3.7350    3.9810 c         1 MOL      0.744262
      3 O1          0.2670   -4.4890    3.1060 o         1 MOL     -0.587955
      4 H1          0.9260   -3.7750    6.1000 hc        1 MOL      0.078556
      5 H2         -0.6190   -3.0920    5.5410 hc        1 MOL      0.078556
      6 H3         -0.3480   -4.8500    5.4770 hc        1 MOL      0.078556
      7 N1          1.5800   -2.7930    3.6970 n         1 MOL     -0.576996
      8 C3          2.2100   -2.4360    2.4050 c3        1 MOL      0.052187
      9 C4          2.8840   -3.5960    1.5850 c         1 MOL      0.617286
     10 O2          3.8970   -4.1880    2.0190 o         1 MOL     -0.593753
     11 C5          3.2780   -1.3620    2.7240 c3        1 MOL     -0.240516
     12 C6          4.0430   -0.8080    1.5160 c         1 MOL      0.747717
     13 O3          5.0540   -0.0920    1.6140 o         1 MOL     -0.724455
     14 O4          3.6420   -1.0590    0.3240 o         1 MOL     -0.724455
     15 H4          1.9220   -2.2310    4.4620 hn        1 MOL      0.288150
     16 H5          1.4870   -1.8820    1.8040 h1        1 MOL      0.098143
     17 H6          4.0430   -1.7870    3.3690 hc        1 MOL      0.071016
     18 H7          2.9090   -0.5050    3.2750 hc        1 MOL      0.071016
     19 N2          2.2760   -3.9340    0.4470 n         1 MOL     -0.536340
     20 C7          2.6790   -5.0450   -0.3910 c3        1 MOL      0.439197
     21 C8          3.9610   -4.7970   -1.2660 c         1 MOL      0.199178
     22 O5          4.7060   -5.7450   -1.5380 o         1 MOL     -0.561835
     23 C9          1.4390   -5.5220   -1.2530 c3        1 MOL     -0.359480
     24 H8          1.5660   -3.2900    0.1310 hn        1 MOL      0.330500
     25 H9          2.9030   -5.9370    0.1870 h1        1 MOL     -0.008525
     26 H10         0.5940   -5.6270   -0.5730 hc        1 MOL      0.087839
     27 H11         1.1980   -4.7930   -2.0360 hc        1 MOL      0.087839
     28 H12         1.6700   -6.4750   -1.7320 hc        1 MOL      0.087839
     29 N3          4.2550   -3.5700   -1.5530 n         1 MOL      0.067611
     30 C10         5.4540   -3.1960   -2.2780 c3        1 MOL      0.044153
     31 C11         6.5880   -2.9480   -1.3890 c         1 MOL      0.402123
     32 O6          7.7300   -3.1090   -1.7830 o         1 MOL     -0.562364
     33 C12         5.2930   -1.9090   -3.0910 c3        1 MOL      0.067615
     34 C13         3.8850   -1.6760   -3.5780 c         1 MOL      0.515530
     35 O7          2.9930   -1.2750   -2.7970 o         1 MOL     -0.668360
     36 O8          3.5700   -2.0960   -4.7170 o         1 MOL     -0.668360
     37 H13         3.5380   -2.9040   -1.2750 hn        1 MOL      0.067092
     38 H14         5.8000   -3.9300   -3.0090 h1        1 MOL      0.059668
     39 H15         6.0230   -1.9770   -3.8930 hc        1 MOL     -0.016775
     40 H16         5.5520   -1.0370   -2.4880 hc        1 MOL     -0.016775
     41 N4          6.3660   -2.4080   -0.2220 n         1 MOL     -0.193906
     42 C14         7.4730   -1.9530    0.5630 c3        1 MOL     -0.049764
     43 C15         7.7620   -0.4880    0.1560 c         1 MOL      0.367673
     44 O9          8.9640   -0.1160    0.2150 o         1 MOL     -0.594406
     45 H17         5.4320   -2.0510   -0.0330 hn        1 MOL      0.101705
     46 H18         8.3920   -2.5430    0.4850 h1        1 MOL      0.086264
     47 H19         7.1540   -2.0670    1.5940 h1        1 MOL      0.086264
     48 N5          6.8300    0.2040   -0.4220 n         1 MOL      0.107419
     49 C16         7.1210    1.4690   -0.9990 c3        1 MOL     -0.171294
     50 C17         6.9810    2.6220   -0.0600 c         1 MOL      0.520770
     51 O10         7.3270    3.7000   -0.4100 o         1 MOL     -0.559518
     52 C18         6.3710    1.6770   -2.3440 c3        1 MOL     -0.133381
     53 C19         4.9770    2.1500   -2.3350 c         1 MOL      0.587681
     54 N6          4.6150    3.2780   -2.8000 n         1 MOL     -0.657652
     55 O11         4.1140    1.5630   -1.7310 o         1 MOL     -0.537795
     56 H20         5.8580   -0.0870   -0.3420 hn        1 MOL      0.034148
     57 H21         8.1340    1.5280   -1.4080 h1        1 MOL      0.135131
     58 H22         6.4750    0.7920   -2.9670 hc        1 MOL      0.052681
     59 H23         6.9550    2.4450   -2.8610 hc        1 MOL      0.052681
     60 H24         5.2800    3.8440   -3.3190 hn        1 MOL      0.311473
     61 H25         3.6680    3.5800   -2.6250 hn        1 MOL      0.311473
     62 N7          6.4380    2.4360    1.1270 n         1 MOL     -0.316510
     63 C20         6.1050    3.5300    2.0780 c3        1 MOL     -0.158369
     64 C21         4.7980    4.2930    1.9280 c         1 MOL      0.540162
     65 O12         4.6410    5.1790    2.7820 o         1 MOL     -0.584941
     66 H26         6.1230    1.5200    1.4260 hn        1 MOL      0.278189
     67 H27         6.9460    4.2130    2.2000 h1        1 MOL      0.109467
     68 H28         5.9840    3.0180    3.0360 h1        1 MOL      0.109467
     69 N8          3.8600    3.9300    1.0320 n         1 MOL     -0.231899
     70 C22         2.5080    4.4740    0.9860 c3        1 MOL     -0.134473
     71 C23         1.5020    3.3290    1.0010 c         1 MOL      0.664106
     72 O13         1.7110    2.2170    0.5330 o         1 MOL     -0.608749
     73 C24         2.3360    5.3520   -0.2290 c3        1 MOL      0.293913
     74 C25         3.4770    6.3130   -0.4640 c3        1 MOL     -0.275823
     75 O14         2.4080    4.4930   -1.3260 oh        1 MOL     -0.504700
     76 H29         4.1230    3.2090    0.3700 hn        1 MOL      0.233136
     77 H30         2.1910    5.0430    1.8540 h1        1 MOL      0.092281
     78 H31         1.4290    5.9500   -0.1400 h1        1 MOL      0.006929
     79 H32         2.3010    5.0800   -2.0870 ho        1 MOL      0.356010
     80 H33         3.7070    6.8600    0.4470 hc        1 MOL      0.068454
     81 H34         4.2930    5.7360   -0.8970 hc        1 MOL      0.068454
     82 H35         3.1520    7.1340   -1.1090 hc        1 MOL      0.068454
     83 N9          0.2810    3.6160    1.5200 n         1 MOL     -0.542660
     84 C26        -0.8440    2.7000    1.5680 c3        1 MOL      0.065917
     85 C27        -1.6980    2.7970    0.3160 c         1 MOL      0.609971
     86 O15        -1.9390    3.8720   -0.1740 o         1 MOL     -0.613169
     87 C28        -1.6530    3.0640    2.8980 c3        1 MOL     -0.026302
     88 C29        -1.0860    2.1580    3.9580 c3        1 MOL      0.202697
     89 C30        -3.1230    2.8390    3.0200 c3        1 MOL     -0.070307
     90 C31        -1.3770    2.3930    5.4440 c3        1 MOL     -0.152944
     91 H36         0.3140    4.4700    2.0670 hn        1 MOL      0.279203
     92 H37        -0.5220    1.6640    1.6240 h1        1 MOL      0.082771
     93 H38        -1.5030    4.0920    3.2030 hc        1 MOL      0.032853
     94 H39        -0.0230    2.3560    3.9390 hc        1 MOL     -0.044632
     95 H40        -1.2420    1.0890    3.7610 hc        1 MOL     -0.044632
     96 H41        -3.4340    2.9870    4.0590 hc        1 MOL     -0.007377
     97 H42        -3.7690    3.4440    2.3770 hc        1 MOL     -0.007377
     98 H43        -3.4050    1.8180    2.7470 hc        1 MOL     -0.007377
     99 H44        -0.8020    1.6620    6.0070 hc        1 MOL      0.027422
    100 H45        -1.1460    3.4070    5.7850 hc        1 MOL      0.027422
    101 H46        -2.4020    2.1050    5.6880 hc        1 MOL      0.027422
    102 N10        -2.0830    1.6690   -0.1920 n         1 MOL     -0.240790
    103 C32        -3.1490    1.5540   -1.2160 c3        1 MOL     -0.041164
    104 C33        -4.6010    1.3450   -0.6700 c         1 MOL      0.478598
    105 O16        -4.7560    0.9780    0.4650 o         1 MOL     -0.349981
    106 C34        -2.7650    0.5740   -2.3170 c3        1 MOL     -0.277021
    107 C35        -1.3800    0.8500   -2.9210 c         1 MOL      0.805760
    108 O17        -1.3540    1.5940   -3.9200 o         1 MOL     -0.708817
    109 O18        -0.4160    0.1100   -2.5570 o         1 MOL     -0.708817
    110 H47        -1.6420    0.8470    0.2040 hn        1 MOL      0.142288
    111 H48        -3.2280    2.5020   -1.7530 h1        1 MOL      0.074447
    112 H49        -3.5120    0.5240   -3.1090 hc        1 MOL      0.077847
    113 H50        -2.8060   -0.4190   -1.8730 hc        1 MOL      0.077847
    114 N11        -5.6300    1.5530   -1.4630 n         1 MOL     -0.623018
    115 C36        -7.0250    1.3340   -0.9710 c3        1 MOL      0.490316
    116 C37        -7.2820   -0.1270   -0.5440 c         1 MOL      0.406466
    117 O19        -7.6260   -0.2440    0.5990 o         1 MOL     -0.475284
    118 C38        -8.0320    1.7170   -2.0360 c3        1 MOL     -0.244912
    119 C39        -9.5420    1.4890   -1.7670 ca        1 MOL      0.024458
    120 C40       -10.1420    1.4200   -0.4540 ca        1 MOL     -0.117942
    121 C41       -10.3630    1.1820   -2.9170 ca        1 MOL     -0.117942
    122 C42       -11.4910    1.0520   -0.3790 ca        1 MOL     -0.126469
    123 C43       -11.7200    0.9100   -2.7880 ca        1 MOL     -0.126469
    124 C44       -12.3030    0.8360   -1.4800 ca        1 MOL     -0.116062
    125 H51        -5.4930    1.9930   -2.3600 hn        1 MOL      0.316054
    126 H52        -7.0480    1.9730   -0.0790 h1        1 MOL     -0.013922
    127 H53        -7.7050    1.2390   -2.9580 hc        1 MOL      0.064936
    128 H54        -7.9040    2.7820   -2.2220 hc        1 MOL      0.064936
    129 H55        -9.5300    1.5190    0.4270 ha        1 MOL      0.108628
    130 H56        -9.8540    1.1790   -3.8640 ha        1 MOL      0.108628
    131 H57       -11.8790    1.0230    0.6300 ha        1 MOL      0.111700
    132 H58       -12.3030    0.7710   -3.6830 ha        1 MOL      0.111700
    133 H59       -13.3490    0.5870   -1.3510 ha        1 MOL      0.106788
    134 N12        -6.9500   -1.2170   -1.3020 n         1 MOL     -0.349314
    135 C45        -6.6920   -2.5480   -0.7390 c3        1 MOL      0.268592
    136 C46        -5.8570   -2.6710    0.5140 c         1 MOL      0.112813
    137 O20        -6.3060   -3.3380    1.4130 o         1 MOL     -0.449224
    138 C47        -6.0600   -3.3290   -1.9300 c3        1 MOL      0.016448
    139 C48        -6.4900   -2.6370   -3.2380 c3        1 MOL     -0.097107
    140 C49        -6.6770   -1.1860   -2.7660 c3        1 MOL      0.121227
    141 H60        -7.6120   -3.0640   -0.4940 h1        1 MOL      0.025352
    142 H61        -4.9810   -3.3190   -1.9030 hc        1 MOL      0.006627
    143 H62        -6.5050   -4.3240   -1.9490 hc        1 MOL      0.006627
    144 H63        -5.7310   -2.6950   -4.0120 hc        1 MOL      0.042481
    145 H64        -7.4550   -2.9830   -3.6080 hc        1 MOL      0.042481
    146 H65        -5.8610   -0.5060   -3.0140 h1        1 MOL      0.000824
    147 H66        -7.5220   -0.7450   -3.2910 h1        1 MOL      0.000824
    148 N13        -4.7570   -1.9590    0.7340 n         1 MOL      0.007765
    149 C50        -3.9710   -2.0370    1.9230 c3        1 MOL     -0.103056
    150 C51        -4.6730   -1.4310    3.2170 c         1 MOL      0.353303
    151 O21        -4.7000   -2.0260    4.3070 o         1 MOL     -0.518723
    152 C52        -2.5890   -1.4190    1.5610 c3        1 MOL     -0.172824
    153 C53        -1.7470   -2.2000    0.5650 c3        1 MOL     -0.030147
    154 C54        -0.4720   -1.5000    0.1830 c         1 MOL      0.784806
    155 O22        -0.1270   -0.3590    0.5400 o         1 MOL     -0.796634
    156 O23         0.3690   -2.1310   -0.4610 o         1 MOL     -0.796634
    157 H67        -4.3120   -1.3820    0.0210 hn        1 MOL      0.171115
    158 H68        -3.7870   -3.0830    2.1400 h1        1 MOL      0.117901
    159 H69        -1.9260   -1.4950    2.4250 hc        1 MOL      0.094602
    160 H70        -2.6970   -0.4150    1.1540 hc        1 MOL      0.094602
    161 H71        -2.3470   -2.4090   -0.3190 hc        1 MOL      0.017360
    162 H72        -1.4880   -3.1520    1.0180 hc        1 MOL      0.017360
    163 N14        -5.3900   -0.2980    2.9620 n         1 MOL      0.046363
    164 C55        -6.2210    0.3900    3.9180 c3        1 MOL     -0.229828
    165 H73        -7.1450    0.7040    3.4340 h1        1 MOL      0.077057
    166 H74        -6.4540   -0.2800    4.7460 h1        1 MOL      0.077057
    167 H75        -5.6920    1.2650    4.2960 h1        1 MOL      0.077057
    168 H76        -5.3100    0.1780    2.0720 hn        1 MOL      0.058032
    169 Ca1         1.8340    0.1580   -1.1540 Ca        1 MOL      1.766711
    170 O24         1.5210    1.9970   -3.1190 oh        1 MOL     -0.970146
    171 H77         1.9840    2.6550   -3.6280 ho        1 MOL      0.429243
    172 H78         0.7430    1.7830   -3.6370 ho        1 MOL      0.429243
@<TRIPOS>BOND
     1    1    2 1   
     2    1    4 1   
     3    1    5 1   
     4    1    6 1   
     5    2    3 2   
     6    2    7 1   
     7    7    8 1   
     8    7   15 1   
     9    8    9 1   
    10    8   11 1   
    11    8   16 1   
    12    9   10 2   
    13    9   19 1   
    14   11   12 1   
    15   11   17 1   
    16   11   18 1   
    17   12   13 1   
    18   12   14 1   
    19   19   20 1   
    20   19   24 1   
    21   20   21 1   
    22   20   23 1   
    23   20   25 1   
    24   21   22 2   
    25   21   29 1   
    26   23   26 1   
    27   23   27 1   
    28   23   28 1   
    29   29   30 1   
    30   29   37 1   
    31   30   31 1   
    32   30   33 1   
    33   30   38 1   
    34   31   32 2   
    35   31   41 1   
    36   33   34 1   
    37   33   39 1   
    38   33   40 1   
    39   34   35 1   
    40   34   36 1   
    41   41   42 1   
    42   41   45 1   
    43   42   43 1   
    44   42   46 1   
    45   42   47 1   
    46   43   44 2   
    47   43   48 1   
    48   48   49 1   
    49   48   56 1   
    50   49   50 1   
    51   49   52 1   
    52   49   57 1   
    53   50   51 2   
    54   50   62 1   
    55   52   53 1   
    56   52   58 1   
    57   52   59 1   
    58   53   54 1   
    59   53   55 2   
    60   54   60 1   
    61   54   61 1   
    62   62   63 1   
    63   62   66 1   
    64   63   64 1   
    65   63   67 1   
    66   63   68 1   
    67   64   65 2   
    68   64   69 1   
    69   69   70 1   
    70   69   76 1   
    71   70   71 1   
    72   70   73 1   
    73   70   77 1   
    74   71   72 2   
    75   71   83 1   
    76   73   74 1   
    77   73   75 1   
    78   73   78 1   
    79   74   80 1   
    80   74   81 1   
    81   74   82 1   
    82   75   79 1   
    83   83   84 1   
    84   83   91 1   
    85   84   85 1   
    86   84   87 1   
    87   84   92 1   
    88   85   86 2   
    89   85  102 1   
    90   87   88 1   
    91   87   89 1   
    92   87   93 1   
    93   88   90 1   
    94   88   94 1   
    95   88   95 1   
    96   89   96 1   
    97   89   97 1   
    98   89   98 1   
    99   90   99 1   
   100   90  100 1   
   101   90  101 1   
   102  102  103 1   
   103  102  110 1   
   104  103  104 1   
   105  103  106 1   
   106  103  111 1   
   107  104  105 2   
   108  104  114 1   
   109  106  107 1   
   110  106  112 1   
   111  106  113 1   
   112  107  108 1   
   113  107  109 1   
   114  114  115 1   
   115  114  125 1   
   116  115  116 1   
   117  115  118 1   
   118  115  126 1   
   119  116  117 2   
   120  116  134 1   
   121  118  119 1   
   122  118  127 1   
   123  118  128 1   
   124  119  120 ar  
   125  119  121 ar  
   126  120  122 ar  
   127  120  129 1   
   128  121  123 ar  
   129  121  130 1   
   130  122  124 ar  
   131  122  131 1   
   132  123  124 ar  
   133  123  132 1   
   134  124  133 1   
   135  134  135 1   
   136  134  140 1   
   137  135  136 1   
   138  135  138 1   
   139  135  141 1   
   140  136  137 2   
   141  136  148 1   
   142  138  139 1   
   143  138  142 1   
   144  138  143 1   
   145  139  140 1   
   146  139  144 1   
   147  139  145 1   
   148  140  146 1   
   149  140  147 1   
   150  148  149 1   
   151  148  157 1   
   152  149  150 1   
   153  149  152 1   
   154  149  158 1   
   155  150  151 2   
   156  150  163 1   
   157  152  153 1   
   158  152  159 1   
   159  152  160 1   
   160  153  154 1   
   161  153  161 1   
   162  153  162 1   
   163  154  155 1   
   164  154  156 1   
   165  163  164 1   
   166  163  168 1   
   167  164  165 1   
   168  164  166 1   
   169  164  167 1   
   170  170  171 1   
   171  170  172 1   
@<TRIPOS>SUBSTRUCTURE
     1 MOL         1 TEMP              0 ****  ****    0 ROOT
