@<TRIPOS>MOLECULE
MOL
  189   185     1     0     0
SMALL
resp


@<TRIPOS>ATOM
      1 C1         -0.3280    2.8010    5.8110 c3        1 MOL     -0.500453
      2 C2         -0.5090    2.2910    4.3940 c         1 MOL      0.853862
      3 O1          0.4440    2.2840    3.6140 o         1 MOL     -0.667779
      4 H1         -1.1840    2.5030    6.4160 hc        1 MOL      0.119022
      5 H2          0.5820    2.3780    6.2370 hc        1 MOL      0.119022
      6 H3         -0.2530    3.8890    5.8000 hc        1 MOL      0.119022
      7 N1         -1.6950    1.8850    4.0310 n         1 MOL     -0.672735
      8 C3         -2.0400    1.5900    2.6290 c3        1 MOL      0.225738
      9 C4         -2.2750    3.0760    2.0320 c         1 MOL      0.341648
     10 O2         -3.2580    3.7430    2.3930 o         1 MOL     -0.552074
     11 C5         -3.2750    0.7770    2.6680 c3        1 MOL     -0.218898
     12 C6         -3.9210    0.4150    1.3610 c         1 MOL      0.799448
     13 O3         -3.2000    0.6630    0.3660 o         1 MOL     -0.661554
     14 O4         -4.9380   -0.2890    1.2920 o         1 MOL     -0.661554
     15 H4         -2.3990    1.8850    4.7530 hn        1 MOL      0.345370
     16 H5         -1.2220    1.0420    2.1770 h1        1 MOL     -0.006924
     17 H6         -4.0530    1.2790    3.2500 hc        1 MOL      0.042027
     18 H7         -2.9020   -0.1190    3.1660 hc        1 MOL      0.042027
     19 N2         -1.5160    3.5530    1.0290 n         1 MOL      0.031486
     20 C7         -1.6900    4.9260    0.5190 c3        1 MOL     -0.056136
     21 C8         -2.6730    5.0910   -0.6230 c         1 MOL      0.448700
     22 O5         -2.9770    6.2240   -1.0440 o         1 MOL     -0.590256
     23 C9         -0.3480    5.5610    0.0980 c3        1 MOL     -0.035602
     24 C10         0.7740    5.5680    1.1950 c3        1 MOL     -0.100930
     25 C11         0.2960    6.2460    2.5320 c3        1 MOL      0.035051
     26 C12         1.4480    6.5120    3.5120 c3        1 MOL     -0.017945
     27 N3          0.8060    7.0230    4.7320 n4        1 MOL     -0.381567
     28 H8         -0.8140    2.8880    0.7330 hn        1 MOL      0.170435
     29 H9         -2.0350    5.6190    1.2880 h1        1 MOL      0.055166
     30 H10        -0.4880    6.6120   -0.1650 hc        1 MOL      0.044076
     31 H11        -0.0060    5.0620   -0.8030 hc        1 MOL      0.044076
     32 H12         1.5850    6.1990    0.8520 hc        1 MOL      0.024771
     33 H13         1.1150    4.5510    1.4100 hc        1 MOL      0.024771
     34 H14        -0.4750    5.5630    2.8900 hc        1 MOL      0.015974
     35 H15        -0.1980    7.1810    2.2810 hc        1 MOL      0.015974
     36 H16         2.1570    7.2390    3.1150 hx        1 MOL      0.109725
     37 H17         1.9170    5.5410    3.6680 hx        1 MOL      0.109725
     38 H18         0.0400    6.4120    4.9840 hn        1 MOL      0.330159
     39 H19         1.4390    7.1280    5.5100 hn        1 MOL      0.330159
     40 H20         0.5190    7.9730    4.5620 hn        1 MOL      0.330159
     41 N4         -3.2390    4.0490   -1.1130 n         1 MOL     -0.060832
     42 C13        -4.2160    4.0410   -2.2320 c3        1 MOL     -0.130192
     43 C14        -5.5060    3.2020   -1.9860 c         1 MOL      0.513534
     44 O6         -6.3100    3.2260   -2.9380 o         1 MOL     -0.486794
     45 C15        -3.5320    3.6020   -3.5500 c3        1 MOL      0.021662
     46 C16        -2.8360    2.3030   -3.6140 c         1 MOL      0.684406
     47 O7         -2.5750    1.6550   -2.5690 o         1 MOL     -0.650600
     48 O8         -2.4570    1.8760   -4.7170 o         1 MOL     -0.650600
     49 H21        -3.0910    3.1280   -0.7070 hn        1 MOL     -0.051681
     50 H22        -4.6140    5.0460   -2.3820 h1        1 MOL      0.100241
     51 H23        -2.8260    4.3620   -3.8890 hc        1 MOL      0.003833
     52 H24        -4.2880    3.5800   -4.3350 hc        1 MOL      0.003833
     53 N5         -5.7350    2.5780   -0.8510 n         1 MOL     -0.373599
     54 C17        -7.0590    2.0210   -0.4670 c3        1 MOL     -0.002545
     55 C18        -7.3700    0.6950   -1.2350 c         1 MOL      0.342923
     56 O9         -8.3710    0.7760   -1.9790 o         1 MOL     -0.535492
     57 H25        -5.0530    2.5050   -0.1190 hn        1 MOL      0.283330
     58 H26        -7.8440    2.7550   -0.6130 h1        1 MOL      0.069693
     59 H27        -7.1600    1.8520    0.6040 h1        1 MOL      0.069693
     60 N6         -6.5450   -0.3360   -1.2340 n         1 MOL      0.053101
     61 C19        -6.9050   -1.6710   -1.8520 c3        1 MOL      0.026187
     62 C20        -7.0460   -2.7790   -0.8220 c         1 MOL      0.432844
     63 O10        -7.5360   -3.8960   -1.0610 o         1 MOL     -0.524979
     64 C21        -5.9020   -2.0310   -3.0060 c3        1 MOL     -0.292755
     65 C22        -4.4650   -1.8800   -2.4780 c         1 MOL      0.759002
     66 O11        -4.2170   -2.3610   -1.4240 o         1 MOL     -0.723377
     67 O12        -3.5260   -1.4370   -3.2050 o         1 MOL     -0.723377
     68 H28        -5.7220   -0.2960   -0.6550 hn        1 MOL     -0.087798
     69 H29        -7.8930   -1.6390   -2.3170 h1        1 MOL      0.082755
     70 H30        -5.9950   -1.3690   -3.8700 hc        1 MOL      0.094209
     71 H31        -5.9770   -3.0910   -3.2220 hc        1 MOL      0.094209
     72 N7         -6.6330   -2.4860    0.4020 n         1 MOL     -0.332363
     73 C23        -6.6280   -3.4660    1.4930 c3        1 MOL     -0.112512
     74 C24        -5.3290   -4.2870    1.7380 c         1 MOL      0.490970
     75 O13        -5.3350   -5.2730    2.4690 o         1 MOL     -0.553501
     76 H32        -6.0000   -1.7250    0.6170 hn        1 MOL      0.232837
     77 H33        -7.4680   -4.1240    1.2600 h1        1 MOL      0.095164
     78 H34        -6.7650   -3.0020    2.4720 h1        1 MOL      0.095164
     79 N8         -4.2150   -3.8320    1.1630 n         1 MOL     -0.275171
     80 C25        -2.8470   -4.4360    1.2610 c3        1 MOL     -0.062726
     81 C26        -1.7410   -3.4430    1.2420 c         1 MOL      0.527965
     82 O14        -1.9020   -2.3020    0.7950 o         1 MOL     -0.595102
     83 C27        -2.6770   -5.4010    0.1110 c3        1 MOL      0.444122
     84 C28        -3.4520   -6.7110    0.2990 c3        1 MOL     -0.547641
     85 O15        -3.0970   -4.8180   -1.1630 oh        1 MOL     -0.635154
     86 H35        -4.2910   -2.8450    0.9650 hn        1 MOL      0.287543
     87 H36        -2.7150   -5.0130    2.1770 h1        1 MOL      0.076856
     88 H37        -1.6320   -5.6870    0.1670 h1        1 MOL     -0.016633
     89 H38        -3.7720   -4.1980   -0.8760 ho        1 MOL      0.442657
     90 H39        -3.3380   -7.0660    1.3220 hc        1 MOL      0.148320
     91 H40        -4.5020   -6.4840    0.1010 hc        1 MOL      0.148320
     92 H41        -3.1640   -7.4510   -0.4460 hc        1 MOL      0.148320
     93 N9         -0.5400   -3.8270    1.8020 n         1 MOL     -0.569256
     94 C29         0.6450   -3.0290    1.7990 c3        1 MOL      0.055626
     95 C30         1.7260   -3.6310    0.9310 c         1 MOL      0.480584
     96 O16         2.0720   -4.8060    0.9890 o         1 MOL     -0.569426
     97 C31         1.0310   -2.6790    3.3010 c3        1 MOL      0.237089
     98 C32        -0.0260   -1.8500    3.9980 c3        1 MOL      0.267211
     99 C33         2.4750   -2.1090    3.3630 c3        1 MOL     -0.407111
    100 C34         0.2700   -1.7490    5.4960 c3        1 MOL     -0.306017
    101 H42        -0.4270   -4.7860    2.0940 hn        1 MOL      0.308474
    102 H43         0.4830   -2.0600    1.3390 h1        1 MOL      0.071630
    103 H44         1.0100   -3.6360    3.8200 hc        1 MOL     -0.033554
    104 H45        -0.8970   -2.5050    3.9510 hc        1 MOL     -0.042156
    105 H46        -0.0670   -0.8770    3.5130 hc        1 MOL     -0.042156
    106 H47         2.9710   -2.2130    4.3300 hc        1 MOL      0.054814
    107 H48         3.1360   -2.5940    2.6570 hc        1 MOL      0.054814
    108 H49         2.4490   -1.0360    3.1710 hc        1 MOL      0.054814
    109 H50         0.2060   -2.7930    5.8190 hc        1 MOL      0.068920
    110 H51         1.1380   -1.1250    5.6980 hc        1 MOL      0.068920
    111 H52        -0.5800   -1.2080    5.9290 hc        1 MOL      0.068920
    112 N10         2.4000   -2.8160    0.1870 n         1 MOL     -0.027135
    113 C35         3.5500   -3.1480   -0.6920 c3        1 MOL     -0.049921
    114 C36         4.9510   -3.0160   -0.0790 c         1 MOL      0.404608
    115 O17         5.2280   -2.3150    0.9310 o         1 MOL     -0.421307
    116 C37         3.4750   -2.3010   -1.9850 c3        1 MOL      0.271178
    117 C38         2.4080   -2.6680   -2.9920 c3        1 MOL     -0.330593
    118 O18         3.3780   -0.9490   -1.5930 oh        1 MOL     -0.484420
    119 H53         2.1980   -1.8260    0.2770 hn        1 MOL      0.094067
    120 H54         3.4660   -4.2100   -0.9290 h1        1 MOL      0.065495
    121 H55         4.4090   -2.4920   -2.5210 h1        1 MOL      0.000352
    122 H56         2.4760   -0.8200   -1.2830 ho        1 MOL      0.318807
    123 H57         2.4610   -2.0280   -3.8760 hc        1 MOL      0.085586
    124 H58         2.4540   -3.7260   -3.2580 hc        1 MOL      0.085586
    125 H59         1.4760   -2.6330   -2.4420 hc        1 MOL      0.085586
    126 N11         5.9670   -3.3650   -0.8240 n         1 MOL     -0.261917
    127 C39         7.3740   -2.9620   -0.6670 c3        1 MOL     -0.327717
    128 C40         7.5440   -1.4840   -0.6470 c         1 MOL      0.481582
    129 O19         8.3120   -0.9590    0.1270 o         1 MOL     -0.478920
    130 C41         8.2030   -3.5870   -1.8380 c3        1 MOL      0.416221
    131 C42         8.5820   -5.0290   -1.5190 c3        1 MOL     -0.329524
    132 O20         7.5840   -3.5480   -3.0940 oh        1 MOL     -0.605288
    133 H60         5.7610   -3.9340   -1.6320 hn        1 MOL      0.271859
    134 H61         7.7970   -3.4000    0.2410 h1        1 MOL      0.184252
    135 H62         9.1360   -3.0450   -1.9960 h1        1 MOL      0.024752
    136 H63         7.9840   -2.8050   -3.5540 ho        1 MOL      0.374452
    137 H64         9.1050   -5.5000   -2.3480 hc        1 MOL      0.094883
    138 H65         9.3540   -4.9770   -0.7490 hc        1 MOL      0.094883
    139 H66         7.6910   -5.6290   -1.3160 hc        1 MOL      0.094883
    140 N12         6.7880   -0.6630   -1.3970 n         1 MOL     -0.381066
    141 C43         6.7700    0.8640   -1.3530 c3        1 MOL     -0.035243
    142 C44         6.2450    1.3100   -0.0290 c         1 MOL      0.277203
    143 O21         6.8970    1.9660    0.8180 o         1 MOL     -0.468367
    144 C45         5.9380    1.4210   -2.5560 c3        1 MOL     -0.076098
    145 C46         6.0830    2.8930   -2.7430 c3        1 MOL     -0.016102
    146 C47         5.5840    3.3610   -4.1230 c3        1 MOL     -0.061037
    147 C48         5.7760    4.8480   -4.4890 c3        1 MOL      0.093996
    148 N13         5.5170    4.9750   -5.9940 n4        1 MOL     -0.364464
    149 H67         6.1330   -1.1170   -2.0140 hn        1 MOL      0.234937
    150 H68         7.7680    1.2860   -1.4610 h1        1 MOL      0.114569
    151 H69         4.9060    1.1310   -2.3890 hc        1 MOL      0.051223
    152 H70         6.1760    0.9050   -3.4850 hc        1 MOL      0.051223
    153 H71         7.1140    3.2210   -2.8020 hc        1 MOL      0.037759
    154 H72         5.6070    3.4570   -1.9370 hc        1 MOL      0.037759
    155 H73         4.5280    3.1630   -4.2590 hc        1 MOL      0.038117
    156 H74         6.0830    2.7480   -4.8800 hc        1 MOL      0.038117
    157 H75         6.8290    5.0990   -4.3620 hx        1 MOL      0.075484
    158 H76         5.3130    5.6030   -3.8500 hx        1 MOL      0.075484
    159 H77         6.0000    4.3270   -6.5990 hn        1 MOL      0.282938
    160 H78         4.5450    4.7660   -6.2060 hn        1 MOL      0.282938
    161 H79         5.7910    5.9120   -6.2460 hn        1 MOL      0.282938
    162 N14         4.9940    0.9750    0.2160 n         1 MOL     -0.020902
    163 C49         4.2970    1.3260    1.4700 c3        1 MOL     -0.083622
    164 C50         4.9250    0.8140    2.7990 c         1 MOL      0.395086
    165 O22         5.0740    1.5780    3.7260 o         1 MOL     -0.545905
    166 C51         2.8180    0.7990    1.2910 c3        1 MOL      0.143402
    167 C52         2.0390    1.4810    0.1190 c3        1 MOL     -0.661725
    168 C53         0.6970    0.7940   -0.3370 c         1 MOL      0.901251
    169 O23         0.6690   -0.3690   -0.6110 o         1 MOL     -0.740652
    170 O24        -0.3890    1.4130   -0.4320 o         1 MOL     -0.740652
    171 H80         4.3980    0.5670   -0.4890 hn        1 MOL      0.085884
    172 H81         4.1650    2.3890    1.6980 h1        1 MOL      0.050376
    173 H82         2.4650    1.0380    2.3000 hc        1 MOL      0.077407
    174 H83         2.9320   -0.2530    1.0260 hc        1 MOL      0.077407
    175 H84         2.6440    1.6790   -0.7690 hc        1 MOL      0.164959
    176 H85         1.8280    2.4430    0.5780 hc        1 MOL      0.164959
    177 N15         5.6650   -0.3150    2.7670 n         1 MOL     -0.006183
    178 C54         6.5230   -0.8100    3.8600 c3        1 MOL     -0.324765
    179 H86         7.4840   -0.2970    3.8270 h1        1 MOL      0.112691
    180 H87         6.0410   -0.6150    4.8180 h1        1 MOL      0.112691
    181 H88         6.6800   -1.8820    3.7420 h1        1 MOL      0.112691
    182 H89         5.6050   -0.8170    1.8900 hn        1 MOL      0.196048
    183 Ca1        -1.8720   -0.6150   -1.2440 Ca        1 MOL      1.737297
    184 O25        -0.3820   -0.4670   -3.4550 oh        1 MOL     -0.882955
    185 H90         0.5580   -0.5980   -3.5980 ho        1 MOL      0.419992
    186 H91        -0.7380   -0.2850   -4.3240 ho        1 MOL      0.419992
    187 O26        -1.2320   -3.0430   -2.0670 oh        1 MOL     -0.882955
    188 H92        -0.7300   -3.3120   -2.8410 ho        1 MOL      0.419992
    189 H93        -1.9550   -3.6550   -2.0220 ho        1 MOL      0.419992
@<TRIPOS>BOND
     1    1    2 1   
     2    1    4 1   
     3    1    5 1   
     4    1    6 1   
     5    2    3 2   
     6    2    7 1   
     7    7    8 1   
     8    7   15 1   
     9    8    9 1   
    10    8   11 1   
    11    8   16 1   
    12    9   10 2   
    13    9   19 1   
    14   11   12 1   
    15   11   17 1   
    16   11   18 1   
    17   12   13 1   
    18   12   14 1   
    19   19   20 1   
    20   19   28 1   
    21   20   21 1   
    22   20   23 1   
    23   20   29 1   
    24   21   22 2   
    25   21   41 1   
    26   23   24 1   
    27   23   30 1   
    28   23   31 1   
    29   24   25 1   
    30   24   32 1   
    31   24   33 1   
    32   25   26 1   
    33   25   34 1   
    34   25   35 1   
    35   26   27 1   
    36   26   36 1   
    37   26   37 1   
    38   27   38 1   
    39   27   39 1   
    40   27   40 1   
    41   41   42 1   
    42   41   49 1   
    43   42   43 1   
    44   42   45 1   
    45   42   50 1   
    46   43   44 2   
    47   43   53 1   
    48   45   46 1   
    49   45   51 1   
    50   45   52 1   
    51   46   47 1   
    52   46   48 1   
    53   53   54 1   
    54   53   57 1   
    55   54   55 1   
    56   54   58 1   
    57   54   59 1   
    58   55   56 2   
    59   55   60 1   
    60   60   61 1   
    61   60   68 1   
    62   61   62 1   
    63   61   64 1   
    64   61   69 1   
    65   62   63 2   
    66   62   72 1   
    67   64   65 1   
    68   64   70 1   
    69   64   71 1   
    70   65   66 1   
    71   65   67 1   
    72   72   73 1   
    73   72   76 1   
    74   73   74 1   
    75   73   77 1   
    76   73   78 1   
    77   74   75 2   
    78   74   79 1   
    79   79   80 1   
    80   79   86 1   
    81   80   81 1   
    82   80   83 1   
    83   80   87 1   
    84   81   82 2   
    85   81   93 1   
    86   83   84 1   
    87   83   85 1   
    88   83   88 1   
    89   84   90 1   
    90   84   91 1   
    91   84   92 1   
    92   85   89 1   
    93   93   94 1   
    94   93  101 1   
    95   94   95 1   
    96   94   97 1   
    97   94  102 1   
    98   95   96 2   
    99   95  112 1   
   100   97   98 1   
   101   97   99 1   
   102   97  103 1   
   103   98  100 1   
   104   98  104 1   
   105   98  105 1   
   106   99  106 1   
   107   99  107 1   
   108   99  108 1   
   109  100  109 1   
   110  100  110 1   
   111  100  111 1   
   112  112  113 1   
   113  112  119 1   
   114  113  114 1   
   115  113  116 1   
   116  113  120 1   
   117  114  115 2   
   118  114  126 1   
   119  116  117 1   
   120  116  118 1   
   121  116  121 1   
   122  117  123 1   
   123  117  124 1   
   124  117  125 1   
   125  118  122 1   
   126  126  127 1   
   127  126  133 1   
   128  127  128 1   
   129  127  130 1   
   130  127  134 1   
   131  128  129 2   
   132  128  140 1   
   133  130  131 1   
   134  130  132 1   
   135  130  135 1   
   136  131  137 1   
   137  131  138 1   
   138  131  139 1   
   139  132  136 1   
   140  140  141 1   
   141  140  149 1   
   142  141  142 1   
   143  141  144 1   
   144  141  150 1   
   145  142  143 2   
   146  142  162 1   
   147  144  145 1   
   148  144  151 1   
   149  144  152 1   
   150  145  146 1   
   151  145  153 1   
   152  145  154 1   
   153  146  147 1   
   154  146  155 1   
   155  146  156 1   
   156  147  148 1   
   157  147  157 1   
   158  147  158 1   
   159  148  159 1   
   160  148  160 1   
   161  148  161 1   
   162  162  163 1   
   163  162  171 1   
   164  163  164 1   
   165  163  166 1   
   166  163  172 1   
   167  164  165 2   
   168  164  177 1   
   169  166  167 1   
   170  166  173 1   
   171  166  174 1   
   172  167  168 1   
   173  167  175 1   
   174  167  176 1   
   175  168  169 1   
   176  168  170 1   
   177  177  178 1   
   178  177  182 1   
   179  178  179 1   
   180  178  180 1   
   181  178  181 1   
   182  184  185 1   
   183  184  186 1   
   184  187  188 1   
   185  187  189 1   
@<TRIPOS>SUBSTRUCTURE
     1 MOL         1 TEMP              0 ****  ****    0 ROOT
