@<TRIPOS>MOLECULE
MOL
  175   173     1     0     0
SMALL
resp


@<TRIPOS>ATOM
      1 C1          0.6200    4.0100    5.4400 c3        1 MOL     -0.405869
      2 C2         -0.0580    4.0160    4.0560 c         1 MOL      0.662290
      3 O1          0.6510    4.2440    3.0540 o         1 MOL     -0.519449
      4 H1         -0.1310    4.1740    6.2120 hc        1 MOL      0.100821
      5 H2          1.1040    3.0470    5.6040 hc        1 MOL      0.100821
      6 H3          1.3650    4.8050    5.4830 hc        1 MOL      0.100821
      7 N1         -1.3990    3.9490    3.9770 n         1 MOL     -0.588726
      8 C3         -1.9720    3.5570    2.6950 c3        1 MOL      0.224218
      9 C4         -2.0250    4.7150    1.6740 c         1 MOL      0.497470
     10 O2         -2.4100    5.8750    2.0540 o         1 MOL     -0.590983
     11 C5         -3.3510    2.9120    2.9250 c3        1 MOL     -0.307776
     12 C6         -4.0550    2.4520    1.6790 c         1 MOL      0.781216
     13 O3         -5.2450    2.2220    1.7550 o         1 MOL     -0.681664
     14 O4         -3.4220    2.1380    0.6650 o         1 MOL     -0.681664
     15 H4         -1.9210    3.9000    4.8390 hn        1 MOL      0.323746
     16 H5         -1.2480    2.8440    2.3120 h1        1 MOL      0.009690
     17 H6         -4.0110    3.5860    3.4760 hc        1 MOL      0.049459
     18 H7         -3.1660    2.0850    3.6100 hc        1 MOL      0.049459
     19 N2         -1.7230    4.3980    0.4230 n         1 MOL     -0.344093
     20 C7         -1.7560    5.2580   -0.6670 c3        1 MOL      0.284384
     21 C8         -3.0150    5.0710   -1.5660 c         1 MOL      0.497351
     22 O5         -3.3180    5.9840   -2.3090 o         1 MOL     -0.571293
     23 C9         -0.4400    4.9560   -1.4130 c3        1 MOL     -0.437412
     24 H8         -1.4360    3.4620    0.2020 hn        1 MOL      0.209508
     25 H9         -1.9090    6.2950   -0.3650 h1        1 MOL      0.004851
     26 H10        -0.2440    3.8860   -1.4390 hc        1 MOL      0.108532
     27 H11        -0.6460    5.2530   -2.4410 hc        1 MOL      0.108532
     28 H12         0.3970    5.4720   -0.9350 hc        1 MOL      0.108532
     29 N3         -3.6740    3.8650   -1.6200 n         1 MOL     -0.537929
     30 C10        -4.4880    3.4120   -2.7420 c3        1 MOL      0.298093
     31 C11        -5.8410    2.7880   -2.3910 c         1 MOL      0.293157
     32 O6         -6.6790    2.4910   -3.2430 o         1 MOL     -0.534167
     33 C12        -3.5070    2.5460   -3.5830 c3        1 MOL     -0.356363
     34 C13        -2.9640    1.4040   -2.7770 c         1 MOL      0.833180
     35 O7         -1.7650    1.2130   -2.7970 o         1 MOL     -0.706395
     36 O8         -3.7100    0.7940   -2.0270 o         1 MOL     -0.706395
     37 H13        -3.3710    3.1760   -0.9450 hn        1 MOL      0.311407
     38 H14        -4.6980    4.2140   -3.4370 h1        1 MOL      0.055535
     39 H15        -2.7530    3.2280   -3.9880 hc        1 MOL      0.067729
     40 H16        -4.1180    2.1510   -4.3910 hc        1 MOL      0.067729
     41 N4         -6.0530    2.5400   -1.0840 n         1 MOL     -0.215133
     42 C14        -7.2220    1.7200   -0.5600 c3        1 MOL     -0.197332
     43 C15        -7.3420    0.2770   -1.0870 c         1 MOL      0.498960
     44 O9         -8.3870   -0.3950   -0.8710 o         1 MOL     -0.636191
     45 H17        -5.2430    2.6950   -0.5010 hn        1 MOL      0.136257
     46 H18        -8.1640    2.2230   -0.7780 h1        1 MOL      0.128471
     47 H19        -7.1920    1.6000    0.5200 h1        1 MOL      0.128471
     48 N5         -6.3090   -0.3840   -1.6160 n         1 MOL     -0.183435
     49 C16        -6.3000   -1.7660   -2.1990 c3        1 MOL     -0.107297
     50 C17        -6.3300   -2.9250   -1.1860 c         1 MOL      0.453573
     51 O10        -6.3240   -4.0820   -1.5750 o         1 MOL     -0.547737
     52 C18        -5.1370   -1.9540   -3.1520 c3        1 MOL     -0.124006
     53 C19        -3.7660   -1.9070   -2.5080 c         1 MOL      0.526130
     54 N6         -2.6940   -1.8260   -3.2730 n         1 MOL     -0.677058
     55 O11        -3.5860   -2.0260   -1.2970 o         1 MOL     -0.301512
     56 H20        -5.3690   -0.0250   -1.5850 hn        1 MOL      0.229643
     57 H21        -7.2470   -1.8240   -2.7450 h1        1 MOL      0.126187
     58 H22        -5.0630   -1.1840   -3.9170 hc        1 MOL      0.044798
     59 H23        -5.1720   -2.8870   -3.7020 hc        1 MOL      0.044798
     60 H24        -2.7690   -1.8640   -4.2760 hn        1 MOL      0.332958
     61 H25        -1.8040   -1.6810   -2.8240 hn        1 MOL      0.332958
     62 N7         -6.4430   -2.6020    0.0810 n         1 MOL     -0.150209
     63 C20        -6.5850   -3.5410    1.1830 c3        1 MOL     -0.277307
     64 C21        -5.2900   -4.1590    1.7280 c         1 MOL      0.518790
     65 O12        -5.3870   -4.8640    2.6980 o         1 MOL     -0.557766
     66 H26        -6.5120   -1.6070    0.2380 hn        1 MOL      0.217995
     67 H27        -7.2610   -4.3210    0.8570 h1        1 MOL      0.128311
     68 H28        -7.0950   -2.9930    1.9760 h1        1 MOL      0.128311
     69 N8         -4.0860   -3.9050    1.1330 n         1 MOL     -0.132510
     70 C22        -2.7950   -4.5870    1.3530 c3        1 MOL     -0.200901
     71 C23        -1.6490   -3.5440    1.4480 c         1 MOL      0.605364
     72 O13        -1.8050   -2.4880    0.8890 o         1 MOL     -0.541270
     73 C24        -2.5330   -5.6050    0.2280 c3        1 MOL      0.560805
     74 C25        -3.5010   -6.7790    0.2760 c3        1 MOL     -0.452967
     75 O14        -2.6640   -5.1360   -1.0860 oh        1 MOL     -0.605737
     76 H29        -4.1090   -3.1780    0.4330 hn        1 MOL     -0.019480
     77 H30        -2.8690   -5.0950    2.3210 h1        1 MOL      0.069520
     78 H31        -1.5370   -6.0120    0.3990 h1        1 MOL     -0.064037
     79 H32        -2.3480   -4.2440   -1.2270 ho        1 MOL      0.352254
     80 H33        -3.4930   -7.3470    1.2090 hc        1 MOL      0.112188
     81 H34        -4.5480   -6.5140    0.1080 hc        1 MOL      0.112188
     82 H35        -3.2890   -7.5070   -0.5040 hc        1 MOL      0.112188
     83 N9         -0.4790   -3.9320    2.0120 n         1 MOL     -0.582751
     84 C26         0.7110   -3.0360    1.9910 c3        1 MOL     -0.054958
     85 C27         1.3620   -3.2430    0.6620 c         1 MOL      0.552598
     86 O15         1.6840   -4.3920    0.2210 o         1 MOL     -0.596732
     87 C28         1.7220   -3.2310    3.1450 c3        1 MOL      0.235836
     88 C29         1.0300   -3.2450    4.5730 c3        1 MOL      0.293606
     89 C30         2.8410   -2.1620    3.0770 c3        1 MOL     -0.271735
     90 C31         1.9890   -3.3000    5.7590 c3        1 MOL     -0.302281
     91 H36        -0.3620   -4.8980    2.2810 hn        1 MOL      0.325508
     92 H37         0.2580   -2.0430    1.9670 h1        1 MOL      0.074834
     93 H38         2.1430   -4.2220    3.0420 hc        1 MOL     -0.037039
     94 H39         0.3770   -4.1200    4.5220 hc        1 MOL     -0.092540
     95 H40         0.3560   -2.3920    4.5930 hc        1 MOL     -0.092540
     96 H41         3.6860   -2.5220    3.6730 hc        1 MOL      0.032419
     97 H42         3.2120   -2.0230    2.0610 hc        1 MOL      0.032419
     98 H43         2.5030   -1.1980    3.4390 hc        1 MOL      0.032419
     99 H44         1.4100   -3.2040    6.6760 hc        1 MOL      0.061335
    100 H45         2.5570   -4.2220    5.6550 hc        1 MOL      0.061335
    101 H46         2.6340   -2.4200    5.6820 hc        1 MOL      0.061335
    102 N10         1.7220   -2.1200    0.0290 n         1 MOL     -0.220869
    103 C32         2.5430   -1.9750   -1.2160 c3        1 MOL     -0.058862
    104 C33         4.0360   -1.5150   -0.8820 c         1 MOL      0.383268
    105 O16         4.2840   -0.9260    0.1570 o         1 MOL     -0.245877
    106 C34         1.9010   -0.9450   -2.1630 c3        1 MOL     -0.170873
    107 C35         0.4890   -1.4420   -2.5310 c         1 MOL      0.719922
    108 O17         0.3190   -1.8750   -3.6950 o         1 MOL     -0.684549
    109 O18        -0.4290   -1.2650   -1.7280 o         1 MOL     -0.684549
    110 H47         1.3540   -1.2400    0.3620 hn        1 MOL      0.236193
    111 H48         2.6730   -2.9440   -1.6950 h1        1 MOL      0.076866
    112 H49         2.5490   -0.7890   -3.0370 hc        1 MOL      0.050730
    113 H50         1.9270   -0.0030   -1.6200 hc        1 MOL      0.050730
    114 N11         5.0000   -1.7250   -1.8140 n         1 MOL     -0.595120
    115 C36         6.4120   -1.3420   -1.5200 c3        1 MOL      0.442918
    116 C37         6.5940    0.1100   -1.1080 c         1 MOL      0.193080
    117 O19         7.2850    0.3160   -0.0820 o         1 MOL     -0.503136
    118 C38         7.2920   -1.8930   -2.6500 c3        1 MOL     -0.266895
    119 C39         8.7530   -1.8880   -2.2300 ca        1 MOL      0.038264
    120 C40         9.5380   -0.8720   -2.7190 ca        1 MOL     -0.062006
    121 C41         9.2470   -2.9080   -1.4490 ca        1 MOL     -0.062006
    122 C42        10.9590   -0.9840   -2.5530 ca        1 MOL     -0.208446
    123 C43        10.6410   -3.0230   -1.2920 ca        1 MOL     -0.208446
    124 C44        11.4650   -2.0340   -1.7660 ca        1 MOL     -0.020521
    125 H51         4.7660   -2.1930   -2.6760 hn        1 MOL      0.331432
    126 H52         6.7190   -1.8590   -0.6100 h1        1 MOL      0.014008
    127 H53         7.2030   -1.3940   -3.6120 hc        1 MOL      0.074448
    128 H54         7.0460   -2.9470   -2.7450 hc        1 MOL      0.074448
    129 H55         9.1410   -0.0180   -3.2350 ha        1 MOL      0.104483
    130 H56         8.5320   -3.6040   -1.0380 ha        1 MOL      0.104483
    131 H57        11.6220   -0.2950   -3.0610 ha        1 MOL      0.123553
    132 H58        11.0450   -3.8210   -0.6930 ha        1 MOL      0.123553
    133 H59        12.5140   -2.1290   -1.5460 ha        1 MOL      0.082517
    134 N12         6.0830    1.1500   -1.7740 n         1 MOL      0.019243
    135 C45         6.3180    2.5620   -1.2210 c3        1 MOL      0.060118
    136 C46         5.8660    2.9150    0.1720 c         1 MOL      0.348745
    137 O20         6.4930    3.7250    0.8250 o         1 MOL     -0.502451
    138 C47         5.5490    3.4090   -2.2840 c3        1 MOL     -0.199836
    139 C48         5.7390    2.5770   -3.5550 c3        1 MOL      0.147493
    140 C49         5.4290    1.1510   -3.0820 c3        1 MOL     -0.301644
    141 H60         7.3820    2.8010   -1.2640 h1        1 MOL      0.062003
    142 H61         4.5090    3.2800   -2.0020 hc        1 MOL      0.071207
    143 H62         6.0600    4.3750   -2.3690 hc        1 MOL      0.071207
    144 H63         5.0460    2.8660   -4.3480 hc        1 MOL     -0.001782
    145 H64         6.7170    2.7810   -3.9970 hc        1 MOL     -0.001782
    146 H65         4.3470    1.0430   -2.9780 h1        1 MOL      0.114878
    147 H66         5.8960    0.3870   -3.7110 h1        1 MOL      0.114878
    148 N13         4.8620    2.1620    0.6110 n         1 MOL     -0.078409
    149 C50         4.1070    2.2590    1.8790 c3        1 MOL     -0.065196
    150 C51         4.7920    1.5050    3.0310 c         1 MOL      0.409457
    151 O21         5.0920    1.9850    4.1480 o         1 MOL     -0.552052
    152 C52         2.6770    1.6900    1.6500 c3        1 MOL     -0.015332
    153 C53         1.8200    2.0650    0.4580 c3        1 MOL     -0.264634
    154 C54         0.4490    1.3230    0.4250 c         1 MOL      0.586919
    155 O22        -0.5580    1.8950   -0.0280 o         1 MOL     -0.590954
    156 O23         0.3410    0.2370    0.8810 o         1 MOL     -0.590954
    157 H67         4.6150    1.4010   -0.0010 hn        1 MOL      0.135026
    158 H68         4.0160    3.2890    2.2200 h1        1 MOL      0.087634
    159 H69         2.1090    2.0230    2.5160 hc        1 MOL      0.020063
    160 H70         2.7520    0.5980    1.6440 hc        1 MOL      0.020063
    161 H71         2.3870    1.9280   -0.4640 hc        1 MOL      0.083021
    162 H72         1.5750    3.1240    0.5930 hc        1 MOL      0.083021
    163 N14         5.2580    0.3190    2.6700 n         1 MOL      0.071382
    164 C55         6.2070   -0.4320    3.4350 c3        1 MOL     -0.280005
    165 H73         5.9440   -0.3790    4.4920 h1        1 MOL      0.091614
    166 H74         6.1950   -1.4720    3.1100 h1        1 MOL      0.091614
    167 H75         7.2040   -0.0160    3.2870 h1        1 MOL      0.091614
    168 H76         4.9690   -0.0700    1.7880 hn        1 MOL      0.019883
    169 Ca1        -2.2080    0.0250    0.0020 Ca        1 MOL      1.585930
    170 O24        -1.7510   -0.1380    2.8820 oh        1 MOL     -0.755966
    171 H77        -0.8650    0.2030    2.8500 ho        1 MOL      0.379140
    172 H78        -2.0740    0.1200    3.7510 ho        1 MOL      0.379140
    173 O25        -4.5250   -0.6110    1.2100 oh        1 MOL     -0.755966
    174 H79        -5.0840    0.0660    1.5750 ho        1 MOL      0.379140
    175 H80        -4.5180   -1.3030    1.8720 ho        1 MOL      0.379140
@<TRIPOS>BOND
     1    1    2 1   
     2    1    4 1   
     3    1    5 1   
     4    1    6 1   
     5    2    3 2   
     6    2    7 1   
     7    7    8 1   
     8    7   15 1   
     9    8    9 1   
    10    8   11 1   
    11    8   16 1   
    12    9   10 2   
    13    9   19 1   
    14   11   12 1   
    15   11   17 1   
    16   11   18 1   
    17   12   13 1   
    18   12   14 1   
    19   19   20 1   
    20   19   24 1   
    21   20   21 1   
    22   20   23 1   
    23   20   25 1   
    24   21   22 2   
    25   21   29 1   
    26   23   26 1   
    27   23   27 1   
    28   23   28 1   
    29   29   30 1   
    30   29   37 1   
    31   30   31 1   
    32   30   33 1   
    33   30   38 1   
    34   31   32 2   
    35   31   41 1   
    36   33   34 1   
    37   33   39 1   
    38   33   40 1   
    39   34   35 1   
    40   34   36 1   
    41   41   42 1   
    42   41   45 1   
    43   42   43 1   
    44   42   46 1   
    45   42   47 1   
    46   43   44 2   
    47   43   48 1   
    48   48   49 1   
    49   48   56 1   
    50   49   50 1   
    51   49   52 1   
    52   49   57 1   
    53   50   51 2   
    54   50   62 1   
    55   52   53 1   
    56   52   58 1   
    57   52   59 1   
    58   53   54 1   
    59   53   55 2   
    60   54   60 1   
    61   54   61 1   
    62   62   63 1   
    63   62   66 1   
    64   63   64 1   
    65   63   67 1   
    66   63   68 1   
    67   64   65 2   
    68   64   69 1   
    69   69   70 1   
    70   69   76 1   
    71   70   71 1   
    72   70   73 1   
    73   70   77 1   
    74   71   72 2   
    75   71   83 1   
    76   73   74 1   
    77   73   75 1   
    78   73   78 1   
    79   74   80 1   
    80   74   81 1   
    81   74   82 1   
    82   75   79 1   
    83   83   84 1   
    84   83   91 1   
    85   84   85 1   
    86   84   87 1   
    87   84   92 1   
    88   85   86 2   
    89   85  102 1   
    90   87   88 1   
    91   87   89 1   
    92   87   93 1   
    93   88   90 1   
    94   88   94 1   
    95   88   95 1   
    96   89   96 1   
    97   89   97 1   
    98   89   98 1   
    99   90   99 1   
   100   90  100 1   
   101   90  101 1   
   102  102  103 1   
   103  102  110 1   
   104  103  104 1   
   105  103  106 1   
   106  103  111 1   
   107  104  105 2   
   108  104  114 1   
   109  106  107 1   
   110  106  112 1   
   111  106  113 1   
   112  107  108 1   
   113  107  109 1   
   114  114  115 1   
   115  114  125 1   
   116  115  116 1   
   117  115  118 1   
   118  115  126 1   
   119  116  117 2   
   120  116  134 1   
   121  118  119 1   
   122  118  127 1   
   123  118  128 1   
   124  119  120 ar  
   125  119  121 ar  
   126  120  122 ar  
   127  120  129 1   
   128  121  123 ar  
   129  121  130 1   
   130  122  124 ar  
   131  122  131 1   
   132  123  124 ar  
   133  123  132 1   
   134  124  133 1   
   135  134  135 1   
   136  134  140 1   
   137  135  136 1   
   138  135  138 1   
   139  135  141 1   
   140  136  137 2   
   141  136  148 1   
   142  138  139 1   
   143  138  142 1   
   144  138  143 1   
   145  139  140 1   
   146  139  144 1   
   147  139  145 1   
   148  140  146 1   
   149  140  147 1   
   150  148  149 1   
   151  148  157 1   
   152  149  150 1   
   153  149  152 1   
   154  149  158 1   
   155  150  151 2   
   156  150  163 1   
   157  152  153 1   
   158  152  159 1   
   159  152  160 1   
   160  153  154 1   
   161  153  161 1   
   162  153  162 1   
   163  154  155 1   
   164  154  156 1   
   165  163  164 1   
   166  163  168 1   
   167  164  165 1   
   168  164  166 1   
   169  164  167 1   
   170  170  171 1   
   171  170  172 1   
   172  173  174 1   
   173  173  175 1   
@<TRIPOS>SUBSTRUCTURE
     1 MOL         1 TEMP              0 ****  ****    0 ROOT
