@<TRIPOS>MOLECULE
MOL
  175   173     1     0     0
SMALL
resp


@<TRIPOS>ATOM
      1 C1         -0.0680    4.2410    5.8430 c3        1 MOL     -0.308754
      2 C2         -0.5490    4.2780    4.3840 c         1 MOL      0.693139
      3 O1          0.2140    4.6070    3.4480 o         1 MOL     -0.546744
      4 H1         -0.5800    3.4390    6.3740 hc        1 MOL      0.071457
      5 H2          1.0070    4.0630    5.8680 hc        1 MOL      0.071457
      6 H3         -0.2900    5.1940    6.3230 hc        1 MOL      0.071457
      7 N1         -1.8220    3.9710    4.1410 n         1 MOL     -0.565960
      8 C3         -2.2360    3.6140    2.8080 c3        1 MOL      0.062041
      9 C4         -2.3930    4.7260    1.7660 c         1 MOL      0.572627
     10 O2         -2.6730    5.8570    2.1450 o         1 MOL     -0.558495
     11 C5         -3.5830    2.8520    2.9390 c3        1 MOL     -0.136735
     12 C6         -4.2260    2.4720    1.6180 c         1 MOL      0.527260
     13 O3         -5.3610    2.8570    1.4070 o         1 MOL     -0.598746
     14 O4         -3.4670    1.9560    0.7410 o         1 MOL     -0.598746
     15 H4         -2.4460    3.6600    4.8770 hn        1 MOL      0.295218
     16 H5         -1.4660    2.8860    2.5510 h1        1 MOL      0.053291
     17 H6         -4.2750    3.5570    3.4040 hc        1 MOL      0.032311
     18 H7         -3.6480    1.9800    3.5920 hc        1 MOL      0.032311
     19 N2         -2.3450    4.4470    0.4420 n         1 MOL     -0.340322
     20 C7         -2.6570    5.3360   -0.6160 c3        1 MOL      0.409707
     21 C8         -3.6970    4.9480   -1.6430 c         1 MOL      0.509846
     22 O5         -3.8190    5.7450   -2.5020 o         1 MOL     -0.568270
     23 C9         -1.3400    5.6650   -1.3340 c3        1 MOL     -0.471956
     24 H8         -1.9740    3.5310    0.2120 hn        1 MOL      0.136652
     25 H9         -3.0190    6.2030   -0.0650 h1        1 MOL     -0.050397
     26 H10        -1.1090    4.6920   -1.7680 hc        1 MOL      0.116028
     27 H11        -1.4790    6.3190   -2.1960 hc        1 MOL      0.116028
     28 H12        -0.6320    5.8690   -0.5290 hc        1 MOL      0.116028
     29 N3         -4.3750    3.7920   -1.6180 n         1 MOL     -0.551881
     30 C10        -5.0750    3.1680   -2.6780 c3        1 MOL      0.416138
     31 C11        -6.3590    2.3560   -2.3300 c         1 MOL      0.329511
     32 O6         -7.1480    2.0360   -3.2140 o         1 MOL     -0.555387
     33 C12        -4.1360    2.3390   -3.5960 c3        1 MOL     -0.450443
     34 C13        -3.3400    1.3830   -2.7870 c         1 MOL      0.852482
     35 O7         -2.1050    1.2510   -2.8330 o         1 MOL     -0.725501
     36 O8         -3.9410    0.7170   -1.9520 o         1 MOL     -0.725501
     37 H13        -4.1900    3.1430   -0.8670 hn        1 MOL      0.273274
     38 H14        -5.5210    3.9690   -3.2680 h1        1 MOL      0.005626
     39 H15        -3.3840    3.0340   -3.9850 hc        1 MOL      0.096380
     40 H16        -4.7340    1.8440   -4.3540 hc        1 MOL      0.096380
     41 N4         -6.5950    2.0440   -1.0560 n         1 MOL     -0.236256
     42 C14        -7.7510    1.1660   -0.5760 c3        1 MOL     -0.010882
     43 C15        -7.5910   -0.3140   -0.9100 c         1 MOL      0.421193
     44 O9         -8.5230   -1.0630   -0.7060 o         1 MOL     -0.593364
     45 H17        -5.9830    2.3310   -0.3040 hn        1 MOL      0.136836
     46 H18        -8.6890    1.5690   -0.9490 h1        1 MOL      0.069340
     47 H19        -7.9060    1.2860    0.4950 h1        1 MOL      0.069340
     48 N5         -6.4000   -0.7290   -1.3590 n         1 MOL     -0.054902
     49 C16        -6.2640   -2.0320   -1.9660 c3        1 MOL     -0.011869
     50 C17        -6.1300   -3.2230   -0.9580 c         1 MOL      0.391780
     51 O10        -6.0120   -4.4300   -1.3140 o         1 MOL     -0.523979
     52 C18        -5.1210   -1.9160   -3.0120 c3        1 MOL     -0.196079
     53 C19        -3.7210   -2.1790   -2.4180 c         1 MOL      0.585502
     54 N6         -2.7860   -2.5100   -3.2480 n         1 MOL     -0.595686
     55 O11        -3.4730   -2.2160   -1.2820 o         1 MOL     -0.598757
     56 H20        -5.6350   -0.0740   -1.4270 hn        1 MOL      0.115623
     57 H21        -7.0870   -2.3860   -2.5800 h1        1 MOL      0.089634
     58 H22        -5.2140   -0.9930   -3.5650 hc        1 MOL      0.069011
     59 H23        -5.1930   -2.7260   -3.7360 hc        1 MOL      0.069011
     60 H24        -2.9360   -2.3790   -4.2390 hn        1 MOL      0.305036
     61 H25        -1.8790   -2.7750   -2.9050 hn        1 MOL      0.305036
     62 N7         -6.0310   -2.9060    0.3300 n         1 MOL     -0.142950
     63 C20        -5.9760   -3.8830    1.3990 c3        1 MOL     -0.102200
     64 C21        -4.6600   -4.6520    1.5100 c         1 MOL      0.477331
     65 O12        -4.6810   -5.8000    1.9790 o         1 MOL     -0.560614
     66 H26        -6.2850   -1.9690    0.5800 hn        1 MOL      0.202160
     67 H27        -6.8170   -4.5750    1.2720 h1        1 MOL      0.071737
     68 H28        -6.1800   -3.4520    2.3810 h1        1 MOL      0.071737
     69 N8         -3.5380   -4.0470    1.0880 n         1 MOL     -0.035265
     70 C22        -2.2050   -4.5670    1.2240 c3        1 MOL     -0.378342
     71 C23        -1.1800   -3.4580    1.6080 c         1 MOL      0.827764
     72 O13        -1.3990   -2.3010    1.2600 o         1 MOL     -0.572462
     73 C24        -1.6550   -5.4160    0.0330 c3        1 MOL      0.488843
     74 C25        -2.3170   -6.7720   -0.0920 c3        1 MOL     -0.599739
     75 O14        -1.9270   -4.8230   -1.1790 oh        1 MOL     -0.598057
     76 H29        -3.7530   -3.1280    0.7230 hn        1 MOL     -0.015848
     77 H30        -2.3180   -5.2180    2.0860 h1        1 MOL      0.116672
     78 H31        -0.5780   -5.5540    0.1300 h1        1 MOL      0.061111
     79 H32        -2.8840   -4.7590   -1.1960 ho        1 MOL      0.408413
     80 H33        -1.8180   -7.3710   -0.8450 hc        1 MOL      0.144792
     81 H34        -2.2940   -7.3180    0.8470 hc        1 MOL      0.144792
     82 H35        -3.3680   -6.6630   -0.3830 hc        1 MOL      0.144792
     83 N9         -0.0200   -3.7600    2.2550 n         1 MOL     -0.838812
     84 C26         1.1160   -2.8290    2.2060 c3        1 MOL     -0.066999
     85 C27         1.8580   -3.0680    0.9430 c         1 MOL      0.621897
     86 O15         2.2520   -4.1740    0.6560 o         1 MOL     -0.603426
     87 C28         1.9980   -2.9410    3.4430 c3        1 MOL      0.311893
     88 C29         1.2000   -3.1370    4.7910 c3        1 MOL      0.187997
     89 C30         2.9330   -1.7550    3.4940 c3        1 MOL     -0.258458
     90 C31         2.0390   -3.7420    5.8890 c3        1 MOL     -0.167051
     91 H36         0.2590   -4.6950    2.4930 hn        1 MOL      0.370137
     92 H37         0.6690   -1.8340    2.1520 h1        1 MOL      0.074648
     93 H38         2.6990   -3.7540    3.2620 hc        1 MOL     -0.042996
     94 H39         0.5020   -3.9540    4.6320 hc        1 MOL     -0.036481
     95 H40         0.6500   -2.2290    5.0450 hc        1 MOL     -0.036481
     96 H41         3.4560   -1.4180    2.5970 hc        1 MOL      0.025137
     97 H42         2.3860   -0.9050    3.8950 hc        1 MOL      0.025137
     98 H43         3.7590   -2.0850    4.1330 hc        1 MOL      0.025137
     99 H44         2.2480   -4.7920    5.6860 hc        1 MOL      0.020929
    100 H45         2.9250   -3.1470    6.1380 hc        1 MOL      0.020929
    101 H46         1.3190   -3.6160    6.6930 hc        1 MOL      0.020929
    102 N10         1.9750   -1.9940    0.1490 n         1 MOL     -0.249055
    103 C32         2.8340   -2.0580   -1.0870 c3        1 MOL      0.039130
    104 C33         4.2490   -1.5210   -0.8050 c         1 MOL      0.299053
    105 O16         4.3860   -0.7490    0.1580 o         1 MOL     -0.244634
    106 C34         2.1720   -1.3410   -2.2790 c3        1 MOL     -0.271815
    107 C35         0.6930   -1.7320   -2.5100 c         1 MOL      0.753135
    108 O17         0.4570   -2.3960   -3.5030 o         1 MOL     -0.670204
    109 O18        -0.1900   -1.0710   -1.8890 o         1 MOL     -0.670204
    110 H47         1.4830   -1.1340    0.3250 hn        1 MOL      0.140422
    111 H48         3.0040   -3.0960   -1.3720 h1        1 MOL      0.068014
    112 H49         2.7800   -1.5980   -3.1480 hc        1 MOL      0.062372
    113 H50         2.2510   -0.2700   -2.0900 hc        1 MOL      0.062372
    114 N11         5.2890   -1.8350   -1.6440 n         1 MOL     -0.536574
    115 C36         6.6640   -1.4030   -1.4480 c3        1 MOL      0.326301
    116 C37         6.8200    0.1380   -1.2530 c         1 MOL      0.504763
    117 O19         7.3900    0.4540   -0.2330 o         1 MOL     -0.554062
    118 C38         7.6210   -1.9610   -2.5240 c3        1 MOL     -0.310805
    119 C39         9.0330   -1.5180   -2.3040 ca        1 MOL      0.163595
    120 C40         9.6760   -0.5000   -3.0350 ca        1 MOL     -0.230949
    121 C41         9.7150   -2.0240   -1.1640 ca        1 MOL     -0.230949
    122 C42        10.8530    0.1390   -2.5710 ca        1 MOL     -0.080806
    123 C43        10.9470   -1.4310   -0.7060 ca        1 MOL     -0.080806
    124 C44        11.4470   -0.2770   -1.3830 ca        1 MOL     -0.128408
    125 H51         5.0590   -2.4770   -2.3990 hn        1 MOL      0.321094
    126 H52         6.9660   -1.7220   -0.4470 h1        1 MOL      0.041808
    127 H53         7.3100   -1.5540   -3.4930 hc        1 MOL      0.085836
    128 H54         7.5960   -3.0390   -2.3650 hc        1 MOL      0.085836
    129 H55         9.1120   -0.0640   -3.8470 ha        1 MOL      0.131508
    130 H56         9.1760   -2.7900   -0.6300 ha        1 MOL      0.131508
    131 H57        11.2010    0.9760   -3.1710 ha        1 MOL      0.109526
    132 H58        11.4430   -1.9070    0.1260 ha        1 MOL      0.109526
    133 H59        12.2840    0.2670   -0.9750 ha        1 MOL      0.111049
    134 N12         6.2150    1.0360   -1.9840 n         1 MOL     -0.089111
    135 C45         6.1480    2.5180   -1.6690 c3        1 MOL     -0.137621
    136 C46         5.5070    2.8820   -0.3190 c         1 MOL      0.317822
    137 O20         5.7500    4.0190    0.1930 o         1 MOL     -0.511826
    138 C47         5.3190    3.1970   -2.8110 c3        1 MOL     -0.050163
    139 C48         4.5580    2.0970   -3.4920 c3        1 MOL      0.030027
    140 C49         5.5800    0.8990   -3.2990 c3        1 MOL     -0.068270
    141 H60         7.1610    2.8990   -1.7970 h1        1 MOL      0.116322
    142 H61         4.5680    3.9030   -2.4780 hc        1 MOL      0.041329
    143 H62         5.8530    3.7050   -3.6190 hc        1 MOL      0.041329
    144 H63         3.6430    2.0360   -2.8860 hc        1 MOL      0.036280
    145 H64         4.2900    2.2770   -4.5370 hc        1 MOL      0.036280
    146 H65         5.0180   -0.0250   -3.4670 h1        1 MOL      0.022662
    147 H66         6.3610    0.8890   -4.0510 h1        1 MOL      0.022662
    148 N13         4.7850    1.9480    0.2830 n         1 MOL     -0.096449
    149 C50         4.1350    2.1760    1.5570 c3        1 MOL     -0.033824
    150 C51         4.8280    1.5100    2.7490 c         1 MOL      0.425992
    151 O21         4.8800    2.0430    3.8560 o         1 MOL     -0.562475
    152 C52         2.6280    1.7810    1.5460 c3        1 MOL      0.113479
    153 C53         1.8440    2.2320    0.2460 c3        1 MOL     -0.111480
    154 C54         0.4470    1.5450    0.2000 c         1 MOL      0.603213
    155 O22        -0.5700    2.0660   -0.2450 o         1 MOL     -0.657150
    156 O23         0.3310    0.3360    0.4550 o         1 MOL     -0.657150
    157 H67         4.4990    1.0730   -0.1390 hn        1 MOL      0.178608
    158 H68         4.1070    3.2430    1.7660 h1        1 MOL      0.081067
    159 H69         2.1040    2.2450    2.3810 hc        1 MOL     -0.035694
    160 H70         2.6140    0.6950    1.5380 hc        1 MOL     -0.035694
    161 H71         2.3570    1.7990   -0.6140 hc        1 MOL      0.058023
    162 H72         1.6960    3.3110    0.1620 hc        1 MOL      0.058023
    163 N14         5.5870    0.4240    2.5150 n         1 MOL     -0.010709
    164 C55         6.6590   -0.1040    3.3590 c3        1 MOL     -0.181072
    165 H73         6.2360   -0.4770    4.2910 h1        1 MOL      0.071322
    166 H74         7.1650   -0.9160    2.8390 h1        1 MOL      0.071322
    167 H75         7.3740    0.6900    3.5770 h1        1 MOL      0.071322
    168 H76         5.3990    0.0370    1.5950 hn        1 MOL      0.015578
    169 Ca1        -2.1110   -0.0020   -0.1930 Ca        1 MOL      1.744829
    170 O24        -1.9290   -0.0510    2.6070 oh        1 MOL     -0.847291
    171 H77        -1.8760   -0.0510    3.5610 ho        1 MOL      0.417771
    172 H78        -1.0510   -0.3050    2.3210 ho        1 MOL      0.417771
    173 O25        -4.1900   -0.9310    1.4190 oh        1 MOL     -0.847291
    174 H79        -5.0410   -0.6700    1.7830 ho        1 MOL      0.417771
    175 H80        -3.5760   -0.8220    2.1400 ho        1 MOL      0.417771
@<TRIPOS>BOND
     1    1    2 1   
     2    1    4 1   
     3    1    5 1   
     4    1    6 1   
     5    2    3 2   
     6    2    7 1   
     7    7    8 1   
     8    7   15 1   
     9    8    9 1   
    10    8   11 1   
    11    8   16 1   
    12    9   10 2   
    13    9   19 1   
    14   11   12 1   
    15   11   17 1   
    16   11   18 1   
    17   12   13 1   
    18   12   14 1   
    19   19   20 1   
    20   19   24 1   
    21   20   21 1   
    22   20   23 1   
    23   20   25 1   
    24   21   22 2   
    25   21   29 1   
    26   23   26 1   
    27   23   27 1   
    28   23   28 1   
    29   29   30 1   
    30   29   37 1   
    31   30   31 1   
    32   30   33 1   
    33   30   38 1   
    34   31   32 2   
    35   31   41 1   
    36   33   34 1   
    37   33   39 1   
    38   33   40 1   
    39   34   35 1   
    40   34   36 1   
    41   41   42 1   
    42   41   45 1   
    43   42   43 1   
    44   42   46 1   
    45   42   47 1   
    46   43   44 2   
    47   43   48 1   
    48   48   49 1   
    49   48   56 1   
    50   49   50 1   
    51   49   52 1   
    52   49   57 1   
    53   50   51 2   
    54   50   62 1   
    55   52   53 1   
    56   52   58 1   
    57   52   59 1   
    58   53   54 1   
    59   53   55 2   
    60   54   60 1   
    61   54   61 1   
    62   62   63 1   
    63   62   66 1   
    64   63   64 1   
    65   63   67 1   
    66   63   68 1   
    67   64   65 2   
    68   64   69 1   
    69   69   70 1   
    70   69   76 1   
    71   70   71 1   
    72   70   73 1   
    73   70   77 1   
    74   71   72 2   
    75   71   83 1   
    76   73   74 1   
    77   73   75 1   
    78   73   78 1   
    79   74   80 1   
    80   74   81 1   
    81   74   82 1   
    82   75   79 1   
    83   83   84 1   
    84   83   91 1   
    85   84   85 1   
    86   84   87 1   
    87   84   92 1   
    88   85   86 2   
    89   85  102 1   
    90   87   88 1   
    91   87   89 1   
    92   87   93 1   
    93   88   90 1   
    94   88   94 1   
    95   88   95 1   
    96   89   96 1   
    97   89   97 1   
    98   89   98 1   
    99   90   99 1   
   100   90  100 1   
   101   90  101 1   
   102  102  103 1   
   103  102  110 1   
   104  103  104 1   
   105  103  106 1   
   106  103  111 1   
   107  104  105 2   
   108  104  114 1   
   109  106  107 1   
   110  106  112 1   
   111  106  113 1   
   112  107  108 1   
   113  107  109 1   
   114  114  115 1   
   115  114  125 1   
   116  115  116 1   
   117  115  118 1   
   118  115  126 1   
   119  116  117 2   
   120  116  134 1   
   121  118  119 1   
   122  118  127 1   
   123  118  128 1   
   124  119  120 ar  
   125  119  121 ar  
   126  120  122 ar  
   127  120  129 1   
   128  121  123 ar  
   129  121  130 1   
   130  122  124 ar  
   131  122  131 1   
   132  123  124 ar  
   133  123  132 1   
   134  124  133 1   
   135  134  135 1   
   136  134  140 1   
   137  135  136 1   
   138  135  138 1   
   139  135  141 1   
   140  136  137 2   
   141  136  148 1   
   142  138  139 1   
   143  138  142 1   
   144  138  143 1   
   145  139  140 1   
   146  139  144 1   
   147  139  145 1   
   148  140  146 1   
   149  140  147 1   
   150  148  149 1   
   151  148  157 1   
   152  149  150 1   
   153  149  152 1   
   154  149  158 1   
   155  150  151 2   
   156  150  163 1   
   157  152  153 1   
   158  152  159 1   
   159  152  160 1   
   160  153  154 1   
   161  153  161 1   
   162  153  162 1   
   163  154  155 1   
   164  154  156 1   
   165  163  164 1   
   166  163  168 1   
   167  164  165 1   
   168  164  166 1   
   169  164  167 1   
   170  170  171 1   
   171  170  172 1   
   172  173  174 1   
   173  173  175 1   
@<TRIPOS>SUBSTRUCTURE
     1 MOL         1 TEMP              0 ****  ****    0 ROOT
