@<TRIPOS>MOLECULE
MOL
  182   178     1     0     0
SMALL
resp


@<TRIPOS>ATOM
      1 C1         -0.7640    4.3160    5.5900 c3        1 MOL     -0.268479
      2 C2         -0.6280    3.5110    4.2570 c         1 MOL      0.521618
      3 O1          0.4270    3.5500    3.5760 o         1 MOL     -0.561464
      4 H1         -0.8260    5.3810    5.3660 hc        1 MOL      0.079320
      5 H2         -1.6660    4.0010    6.1150 hc        1 MOL      0.079320
      6 H3          0.1070    4.1280    6.2190 hc        1 MOL      0.079320
      7 N1         -1.6960    2.8410    3.8410 n         1 MOL     -0.482533
      8 C3         -1.9820    2.3620    2.5050 c3        1 MOL      0.086411
      9 C4         -2.6010    3.4350    1.6260 c         1 MOL      0.574629
     10 O2         -3.7980    3.5800    1.6020 o         1 MOL     -0.497489
     11 C5         -2.6960    1.0120    2.4260 c3        1 MOL     -0.135338
     12 C6         -3.0700    0.5700    1.0290 c         1 MOL      0.321866
     13 O3         -2.4070    0.9510    0.0090 o         1 MOL     -0.490418
     14 O4         -4.1720    0.0050    0.9160 o         1 MOL     -0.490418
     15 H4         -2.5100    3.0260    4.4040 hn        1 MOL      0.316892
     16 H5         -1.0590    2.1530    1.9580 h1        1 MOL     -0.016684
     17 H6         -3.6380    1.1430    2.9690 hc        1 MOL      0.060225
     18 H7         -2.1180    0.2700    2.9850 hc        1 MOL      0.060225
     19 N2         -1.7750    4.3200    1.0850 n         1 MOL     -0.400369
     20 C7         -2.2600    5.5120    0.3900 c3        1 MOL     -0.138532
     21 C8         -3.2200    5.2750   -0.7700 c         1 MOL      0.497080
     22 O5         -4.1210    6.0680   -1.0110 o         1 MOL     -0.553667
     23 C9         -1.0530    6.2800   -0.0630 c3        1 MOL      0.072393
     24 C10        -1.2430    7.8100   -0.1550 c3        1 MOL     -0.064936
     25 C11        -0.9790    8.4040    1.2260 c3        1 MOL      0.034534
     26 C12        -0.9100    9.8950    1.1580 c3        1 MOL      0.065250
     27 N3         -0.7890   10.4180    2.5190 n4        1 MOL     -0.299161
     28 H8         -0.7920    4.2780    1.3010 hn        1 MOL      0.316181
     29 H9         -2.7050    6.1690    1.1420 h1        1 MOL      0.075582
     30 H10        -0.8550    5.9080   -1.0680 hc        1 MOL      0.017044
     31 H11        -0.1320    6.1240    0.4950 hc        1 MOL      0.017044
     32 H12        -2.2690    8.0450   -0.4390 hc        1 MOL      0.041917
     33 H13        -0.5310    8.2300   -0.8680 hc        1 MOL      0.041917
     34 H14         0.0430    8.1240    1.4680 hc        1 MOL      0.015499
     35 H15        -1.6210    8.0530    2.0330 hc        1 MOL      0.015499
     36 H16        -1.8380   10.2180    0.6880 hx        1 MOL      0.068704
     37 H17        -0.0670   10.2760    0.5700 hx        1 MOL      0.068704
     38 H18        -0.8900   11.4210    2.5130 hn        1 MOL      0.309019
     39 H19        -1.4290   10.0070    3.1820 hn        1 MOL      0.309019
     40 H20         0.1370   10.3010    2.9040 hn        1 MOL      0.309019
     41 N4         -3.0320    4.2060   -1.5110 n         1 MOL     -0.184728
     42 C13        -3.9410    3.8710   -2.6780 c3        1 MOL     -0.069934
     43 C14        -5.2190    3.1310   -2.3260 c         1 MOL      0.417522
     44 O6         -6.1450    3.1140   -3.1620 o         1 MOL     -0.521633
     45 C15        -3.2740    3.2000   -3.9120 c3        1 MOL     -0.168027
     46 C16        -2.4180    2.0160   -3.4690 c         1 MOL      0.651522
     47 O7         -2.7810    0.8280   -3.6160 o         1 MOL     -0.689616
     48 O8         -1.4620    2.2340   -2.6870 o         1 MOL     -0.689616
     49 H21        -2.4100    3.4810   -1.1850 hn        1 MOL      0.144973
     50 H22        -4.2580    4.8120   -3.1200 h1        1 MOL      0.121364
     51 H23        -2.6660    3.8840   -4.5070 hc        1 MOL      0.068578
     52 H24        -4.0650    2.8830   -4.5840 hc        1 MOL      0.068578
     53 N5         -5.2000    2.4140   -1.1990 n         1 MOL     -0.077303
     54 C17        -6.4220    1.7490   -0.6410 c3        1 MOL     -0.262626
     55 C18        -6.7100    0.3160   -1.1600 c         1 MOL      0.544117
     56 O9         -7.8890   -0.0850   -1.1030 o         1 MOL     -0.559863
     57 H25        -4.4020    2.4630   -0.5760 hn        1 MOL      0.146980
     58 H26        -7.3430    2.3070   -0.7760 h1        1 MOL      0.127393
     59 H27        -6.2850    1.6920    0.4390 h1        1 MOL      0.127393
     60 N6         -5.6470   -0.3820   -1.5600 n         1 MOL     -0.210315
     61 C19        -5.8260   -1.7380   -1.9720 c3        1 MOL     -0.042091
     62 C20        -5.7750   -2.7160   -0.7920 c         1 MOL      0.277352
     63 O10        -6.0160   -3.9040   -1.0260 o         1 MOL     -0.502837
     64 C21        -4.7440   -1.9720   -3.0190 c3        1 MOL      0.057740
     65 C22        -3.4330   -2.4840   -2.4690 c         1 MOL      0.510383
     66 N7         -2.8310   -3.4240   -3.1970 n         1 MOL     -0.586704
     67 O11        -2.8820   -2.0770   -1.4180 o         1 MOL     -0.733701
     68 H28        -4.7300    0.0110   -1.3640 hn        1 MOL      0.080701
     69 H29        -6.7850   -1.8900   -2.4580 h1        1 MOL      0.131389
     70 H30        -4.5400   -1.1270   -3.6740 hc        1 MOL      0.017869
     71 H31        -5.1730   -2.7650   -3.6350 hc        1 MOL      0.017869
     72 H32        -3.2410   -3.6350   -4.0980 hn        1 MOL      0.307451
     73 H33        -1.9770   -3.9060   -2.9600 hn        1 MOL      0.307451
     74 N8         -5.4000   -2.3030    0.4060 n         1 MOL      0.039516
     75 C23        -5.4740   -3.1360    1.6260 c3        1 MOL     -0.315784
     76 C24        -4.0650   -3.4180    2.2720 c         1 MOL      0.626198
     77 O12        -4.0050   -3.8610    3.3930 o         1 MOL     -0.583906
     78 H34        -5.1170   -1.3420    0.4740 hn        1 MOL      0.078408
     79 H35        -5.9990   -4.0670    1.4290 h1        1 MOL      0.136823
     80 H36        -6.1210   -2.5610    2.2850 h1        1 MOL      0.136823
     81 N9         -2.9920   -3.1270    1.5640 n         1 MOL     -0.719931
     82 C25        -1.6670   -3.7450    1.7200 c3        1 MOL      0.744529
     83 C26        -0.5910   -2.6470    1.4190 c         1 MOL      0.059797
     84 O13        -0.9030   -1.6740    0.7170 o         1 MOL     -0.414623
     85 C27        -1.4700   -4.9170    0.8860 c3        1 MOL     -0.383836
     86 C28        -2.4420   -6.0940    1.1050 ca        1 MOL      0.149880
     87 C29        -3.6970   -6.1390    0.4400 ca        1 MOL     -0.217103
     88 C30        -2.0950   -7.1950    1.9360 ca        1 MOL     -0.217103
     89 C31        -4.5410   -7.2740    0.5590 ca        1 MOL     -0.252167
     90 C32        -2.9500   -8.2670    2.1380 ca        1 MOL     -0.252167
     91 C33        -4.1050   -8.2860    1.3980 ca        1 MOL      0.387382
     92 O14        -4.8330   -9.3620    1.5960 oh        1 MOL     -0.490153
     93 H37        -3.2200   -2.6390    0.7150 hn        1 MOL      0.606906
     94 H38        -1.4950   -4.0180    2.7680 h1        1 MOL     -0.071423
     95 H39        -0.4550   -5.2430    1.1070 hc        1 MOL      0.081317
     96 H40        -1.6270   -4.5090   -0.1110 hc        1 MOL      0.081317
     97 H41        -3.9930   -5.3710   -0.2660 ha        1 MOL      0.130663
     98 H42        -1.1270   -7.1590    2.4010 ha        1 MOL      0.130663
     99 H43        -5.5460   -7.2900    0.1620 ha        1 MOL      0.153828
    100 H44        -2.6980   -9.0270    2.8680 ha        1 MOL      0.153828
    101 H45        -4.5240   -9.7420    2.4180 ho        1 MOL      0.341670
    102 N10         0.6490   -2.8750    1.8480 n         1 MOL     -0.376320
    103 C34         1.7560   -1.8890    1.7780 c3        1 MOL     -0.060077
    104 C35         3.0110   -2.6380    1.2790 c         1 MOL      0.439899
    105 O15         3.5770   -3.3770    2.0870 o         1 MOL     -0.539494
    106 C36         2.1260   -1.1260    3.0980 c3        1 MOL     -0.000977
    107 C37         0.9310   -0.3290    3.5820 c3        1 MOL     -0.105233
    108 C38         3.3020   -0.1940    2.7920 c3        1 MOL      0.001474
    109 C39         1.1650    0.5240    4.8560 c3        1 MOL     -0.051015
    110 H46         0.7010   -3.6890    2.4390 hn        1 MOL      0.311154
    111 H47         1.6150   -1.2630    0.8970 h1        1 MOL      0.105649
    112 H48         2.3950   -1.8530    3.8540 hc        1 MOL      0.054957
    113 H49         0.0880   -0.9760    3.8140 hc        1 MOL      0.076475
    114 H50         0.5590    0.3630    2.8360 hc        1 MOL      0.076475
    115 H51         4.2110   -0.7890    2.6640 hc        1 MOL      0.003380
    116 H52         3.1640    0.4290    1.9200 hc        1 MOL      0.003380
    117 H53         3.4980    0.3730    3.7040 hc        1 MOL      0.003380
    118 H54         0.2630    0.6920    5.4290 hc        1 MOL      0.024824
    119 H55         1.7620   -0.0860    5.5390 hc        1 MOL      0.024824
    120 H56         1.7940    1.3970    4.6660 hc        1 MOL      0.024824
    121 N11         3.4640   -2.4690    0.0730 n         1 MOL     -0.111934
    122 C40         4.6770   -3.1040   -0.4070 c3        1 MOL     -0.159059
    123 C41         5.8550   -2.3400    0.1410 c         1 MOL      0.265513
    124 O16         5.6760   -1.2050    0.5440 o         1 MOL     -0.157145
    125 C42         4.6920   -3.3400   -1.9470 c3        1 MOL      0.126328
    126 O17         4.6910   -2.0740   -2.6720 oh        1 MOL     -0.636125
    127 H57         3.0190   -1.8450   -0.5850 hn        1 MOL      0.065498
    128 H58         4.7050   -4.1100   -0.0080 h1        1 MOL      0.084893
    129 H59         3.7760   -3.8650   -2.2410 h1        1 MOL      0.065123
    130 H60         5.4980   -4.0160   -2.2270 h1        1 MOL      0.065123
    131 H61         3.8960   -1.5380   -2.6450 ho        1 MOL      0.405906
    132 N12         6.9990   -2.9580    0.1130 n         1 MOL     -0.357345
    133 C43         8.2970   -2.3240    0.6590 c3        1 MOL      0.172308
    134 C44         8.6380   -1.1040   -0.2060 c         1 MOL      0.478190
    135 O18         9.0550   -0.1150    0.3990 o         1 MOL     -0.515147
    136 C45         9.3410   -3.4030    0.5950 c3        1 MOL     -0.376956
    137 H62         6.9280   -3.8660   -0.3230 hn        1 MOL      0.281934
    138 H63         8.0750   -1.9550    1.6590 h1        1 MOL      0.095548
    139 H64         9.1040   -4.0580    1.4350 hc        1 MOL      0.110851
    140 H65         9.3340   -3.9220   -0.3690 hc        1 MOL      0.110851
    141 H66        10.2970   -2.9240    0.7800 hc        1 MOL      0.110851
    142 N13         8.3930   -1.1830   -1.5370 n         1 MOL     -0.453656
    143 C46         8.5820    0.0580   -2.3220 c3        1 MOL      0.156503
    144 C47         7.5780    1.2250   -2.0440 c         1 MOL      0.301155
    145 O19         7.8920    2.4060   -2.2590 o         1 MOL     -0.503578
    146 C48         8.4560   -0.4360   -3.7810 c3        1 MOL     -0.266985
    147 H67         8.1360   -2.0760   -1.9270 hn        1 MOL      0.313770
    148 H68         9.5730    0.5010   -2.2300 h1        1 MOL      0.085604
    149 H69         9.2000   -1.2000   -3.9910 hc        1 MOL      0.074204
    150 H70         7.4650   -0.8910   -3.8010 hc        1 MOL      0.074204
    151 H71         8.4180    0.4020   -4.4770 hc        1 MOL      0.074204
    152 N14         6.4860    0.9260   -1.3220 n         1 MOL      0.096175
    153 C49         5.4660    1.9030   -0.8310 c3        1 MOL     -0.037995
    154 C50         5.7640    2.3100    0.6540 c         1 MOL      0.316203
    155 O20         5.7760    3.4920    1.0150 o         1 MOL     -0.528819
    156 C51         4.0210    1.3610   -0.9170 c3        1 MOL      0.130979
    157 C52         3.4870    1.3170   -2.3290 c3        1 MOL     -0.250246
    158 C53         2.2560    0.3590   -2.4520 c         1 MOL      0.783637
    159 O21         1.1720    0.9140   -2.7770 o         1 MOL     -0.682382
    160 O22         2.4070   -0.8870   -2.2870 o         1 MOL     -0.682382
    161 H72         6.2120   -0.0200   -1.1220 hn        1 MOL     -0.018216
    162 H73         5.4890    2.7940   -1.4450 h1        1 MOL      0.081082
    163 H74         3.4180    2.0520   -0.3370 hc        1 MOL      0.008575
    164 H75         3.9200    0.3960   -0.4170 hc        1 MOL      0.008575
    165 H76         4.3180    0.9200   -2.9190 hc        1 MOL      0.046939
    166 H77         3.2770    2.3520   -2.5840 hc        1 MOL      0.046939
    167 N15         6.2570    1.3140    1.4280 n         1 MOL      0.024963
    168 C54         6.6870    1.4980    2.8190 c3        1 MOL     -0.168122
    169 H78         6.4880    2.5240    3.1280 h1        1 MOL      0.074772
    170 H79         6.1380    0.8110    3.4630 h1        1 MOL      0.074772
    171 H80         7.7560    1.2960    2.8990 h1        1 MOL      0.074772
    172 H81         6.1990    0.4010    0.9980 hn        1 MOL     -0.065800
    173 Ca1        -1.0370   -0.2170   -1.8680 Ca        1 MOL      1.761423
    174 O23         0.4700    0.9580    0.0290 oh        1 MOL     -0.806053
    175 H82         0.8430    1.8090    0.2800 ho        1 MOL      0.386730
    176 H83         0.6620    0.3830    0.7700 ho        1 MOL      0.386730
    177 O24         0.4450   -2.4490   -2.0060 oh        1 MOL     -0.806053
    178 H84         1.2230   -1.9110   -2.1620 ho        1 MOL      0.386730
    179 H85         0.7870   -3.3370   -1.9110 ho        1 MOL      0.386730
    180 O25        -0.3830   -1.2970   -4.5710 oh        1 MOL     -0.806053
    181 H86        -0.9000   -1.7730   -5.2210 ho        1 MOL      0.386730
    182 H87         0.4440   -1.7720   -4.5170 ho        1 MOL      0.386730
@<TRIPOS>BOND
     1    1    2 1   
     2    1    4 1   
     3    1    5 1   
     4    1    6 1   
     5    2    3 2   
     6    2    7 1   
     7    7    8 1   
     8    7   15 1   
     9    8    9 1   
    10    8   11 1   
    11    8   16 1   
    12    9   10 2   
    13    9   19 1   
    14   11   12 1   
    15   11   17 1   
    16   11   18 1   
    17   12   13 1   
    18   12   14 1   
    19   19   20 1   
    20   19   28 1   
    21   20   21 1   
    22   20   23 1   
    23   20   29 1   
    24   21   22 2   
    25   21   41 1   
    26   23   24 1   
    27   23   30 1   
    28   23   31 1   
    29   24   25 1   
    30   24   32 1   
    31   24   33 1   
    32   25   26 1   
    33   25   34 1   
    34   25   35 1   
    35   26   27 1   
    36   26   36 1   
    37   26   37 1   
    38   27   38 1   
    39   27   39 1   
    40   27   40 1   
    41   41   42 1   
    42   41   49 1   
    43   42   43 1   
    44   42   45 1   
    45   42   50 1   
    46   43   44 2   
    47   43   53 1   
    48   45   46 1   
    49   45   51 1   
    50   45   52 1   
    51   46   47 1   
    52   46   48 1   
    53   53   54 1   
    54   53   57 1   
    55   54   55 1   
    56   54   58 1   
    57   54   59 1   
    58   55   56 2   
    59   55   60 1   
    60   60   61 1   
    61   60   68 1   
    62   61   62 1   
    63   61   64 1   
    64   61   69 1   
    65   62   63 2   
    66   62   74 1   
    67   64   65 1   
    68   64   70 1   
    69   64   71 1   
    70   65   66 1   
    71   65   67 2   
    72   66   72 1   
    73   66   73 1   
    74   74   75 1   
    75   74   78 1   
    76   75   76 1   
    77   75   79 1   
    78   75   80 1   
    79   76   77 2   
    80   76   81 1   
    81   81   82 1   
    82   81   93 1   
    83   82   83 1   
    84   82   85 1   
    85   82   94 1   
    86   83   84 2   
    87   83  102 1   
    88   85   86 1   
    89   85   95 1   
    90   85   96 1   
    91   86   87 ar  
    92   86   88 ar  
    93   87   89 ar  
    94   87   97 1   
    95   88   90 ar  
    96   88   98 1   
    97   89   91 ar  
    98   89   99 1   
    99   90   91 ar  
   100   90  100 1   
   101   91   92 1   
   102   92  101 1   
   103  102  103 1   
   104  102  110 1   
   105  103  104 1   
   106  103  106 1   
   107  103  111 1   
   108  104  105 2   
   109  104  121 1   
   110  106  107 1   
   111  106  108 1   
   112  106  112 1   
   113  107  109 1   
   114  107  113 1   
   115  107  114 1   
   116  108  115 1   
   117  108  116 1   
   118  108  117 1   
   119  109  118 1   
   120  109  119 1   
   121  109  120 1   
   122  121  122 1   
   123  121  127 1   
   124  122  123 1   
   125  122  125 1   
   126  122  128 1   
   127  123  124 2   
   128  123  132 1   
   129  125  126 1   
   130  125  129 1   
   131  125  130 1   
   132  126  131 1   
   133  132  133 1   
   134  132  137 1   
   135  133  134 1   
   136  133  136 1   
   137  133  138 1   
   138  134  135 2   
   139  134  142 1   
   140  136  139 1   
   141  136  140 1   
   142  136  141 1   
   143  142  143 1   
   144  142  147 1   
   145  143  144 1   
   146  143  146 1   
   147  143  148 1   
   148  144  145 2   
   149  144  152 1   
   150  146  149 1   
   151  146  150 1   
   152  146  151 1   
   153  152  153 1   
   154  152  161 1   
   155  153  154 1   
   156  153  156 1   
   157  153  162 1   
   158  154  155 2   
   159  154  167 1   
   160  156  157 1   
   161  156  163 1   
   162  156  164 1   
   163  157  158 1   
   164  157  165 1   
   165  157  166 1   
   166  158  159 1   
   167  158  160 1   
   168  167  168 1   
   169  167  172 1   
   170  168  169 1   
   171  168  170 1   
   172  168  171 1   
   173  174  175 1   
   174  174  176 1   
   175  177  178 1   
   176  177  179 1   
   177  180  181 1   
   178  180  182 1   
@<TRIPOS>SUBSTRUCTURE
     1 MOL         1 TEMP              0 ****  ****    0 ROOT
