@<TRIPOS>MOLECULE
MOL
  172   171     1     0     0
SMALL
resp


@<TRIPOS>ATOM
      1 C1         -0.3870   -3.4460    5.9610 c3        1 MOL     -0.431354
      2 C2          0.1610   -3.4870    4.5290 c         1 MOL      0.734921
      3 O1         -0.4890   -3.7300    3.5380 o         1 MOL     -0.548989
      4 H1         -0.8780   -2.4890    6.1350 hc        1 MOL      0.106705
      5 H2         -1.1070   -4.2530    6.0990 hc        1 MOL      0.106705
      6 H3          0.4330   -3.5660    6.6680 hc        1 MOL      0.106705
      7 N1          1.4710   -3.3080    4.3720 n         1 MOL     -0.563194
      8 C3          2.0850   -3.2190    3.0430 c3        1 MOL     -0.027073
      9 C4          2.2090   -4.5200    2.2920 c         1 MOL      0.712798
     10 O2          2.3710   -5.6300    2.8180 o         1 MOL     -0.614838
     11 C5          3.4610   -2.5840    3.2540 c3        1 MOL     -0.268459
     12 C6          4.2270   -2.3210    1.9820 c         1 MOL      0.612218
     13 O3          5.4920   -2.5450    1.9440 o         1 MOL     -0.635681
     14 O4          3.5480   -1.8620    1.0580 o         1 MOL     -0.635681
     15 H4          2.0510   -3.0100    5.1500 hn        1 MOL      0.312093
     16 H5          1.4430   -2.5770    2.4430 h1        1 MOL      0.124823
     17 H6          4.0840   -3.1020    3.9860 hc        1 MOL      0.057223
     18 H7          3.4070   -1.6040    3.7280 hc        1 MOL      0.057223
     19 N2          2.2100   -4.4120    0.9610 n         1 MOL     -0.413644
     20 C7          2.3500   -5.4860    0.0010 c3        1 MOL      0.298979
     21 C8          3.3800   -5.1740   -1.1360 c         1 MOL      0.200621
     22 O5          3.8220   -6.0760   -1.8350 o         1 MOL     -0.533363
     23 C9          1.0300   -5.6280   -0.6840 c3        1 MOL     -0.440425
     24 H8          2.0710   -3.4960    0.5580 hn        1 MOL      0.218551
     25 H9          2.5500   -6.4050    0.5580 h1        1 MOL      0.036890
     26 H10         0.8150   -4.7490   -1.2980 hc        1 MOL      0.118914
     27 H11         1.0760   -6.3820   -1.4770 hc        1 MOL      0.118914
     28 H12         0.2270   -5.7090    0.0570 hc        1 MOL      0.118914
     29 N3          3.7450   -3.9030   -1.4420 n         1 MOL      0.099506
     30 C10         4.5740   -3.4750   -2.5620 c3        1 MOL      0.067590
     31 C11         5.8540   -2.6650   -2.2740 c         1 MOL      0.291518
     32 O6          6.5450   -2.2670   -3.2210 o         1 MOL     -0.502491
     33 C12         3.7490   -2.7390   -3.5830 c3        1 MOL     -0.008505
     34 C13         2.8860   -1.5710   -3.1360 c         1 MOL      0.649130
     35 O7          3.2670   -1.0010   -2.0620 o         1 MOL     -0.668932
     36 O8          1.9190   -1.1470   -3.8300 o         1 MOL     -0.668932
     37 H13         3.4000   -3.2020   -0.8070 hn        1 MOL      0.039631
     38 H14         4.9030   -4.3910   -3.0500 h1        1 MOL      0.049747
     39 H15         2.9360   -3.4250   -3.8460 hc        1 MOL     -0.016363
     40 H16         4.3230   -2.5220   -4.4770 hc        1 MOL     -0.016363
     41 N4          6.1220   -2.3480   -1.0080 n         1 MOL     -0.148601
     42 C14         7.4520   -1.6880   -0.6620 c3        1 MOL      0.010820
     43 C15         7.5720   -0.2280   -1.1590 c         1 MOL      0.354241
     44 O9          8.6320    0.3470   -1.3420 o         1 MOL     -0.540890
     45 H17         5.5950   -2.7530   -0.2570 hn        1 MOL      0.106284
     46 H18         8.2920   -2.3200   -0.9470 h1        1 MOL      0.058138
     47 H19         7.5100   -1.5530    0.4230 h1        1 MOL      0.058138
     48 N5          6.3290    0.3450   -1.3520 n         1 MOL     -0.075299
     49 C16         6.3680    1.7350   -1.9730 c3        1 MOL     -0.004453
     50 C17         6.4000    2.8780   -0.9530 c         1 MOL      0.401070
     51 O10         6.4490    4.0270   -1.3980 o         1 MOL     -0.528166
     52 C18         5.2270    1.8830   -2.9850 c3        1 MOL     -0.252424
     53 C19         3.8040    2.2480   -2.4370 c         1 MOL      0.589347
     54 N6          2.7950    2.3620   -3.2650 n         1 MOL     -0.627928
     55 O11         3.5340    2.1660   -1.2420 o         1 MOL     -0.528536
     56 H20         5.5220   -0.2460   -1.1690 hn        1 MOL      0.057911
     57 H21         7.2900    1.8980   -2.5270 h1        1 MOL      0.125618
     58 H22         5.0880    0.9120   -3.4430 hc        1 MOL      0.089841
     59 H23         5.4660    2.6210   -3.7470 hc        1 MOL      0.089841
     60 H24         2.9230    2.3910   -4.2640 hn        1 MOL      0.337916
     61 H25         1.8470    2.3980   -2.9130 hn        1 MOL      0.337916
     62 N7          6.2450    2.5770    0.2770 n         1 MOL     -0.274807
     63 C20         6.2090    3.6750    1.3250 c3        1 MOL     -0.204090
     64 C21         4.8810    4.4110    1.5240 c         1 MOL      0.499158
     65 O12         4.9330    5.3970    2.2600 o         1 MOL     -0.569711
     66 H26         6.2150    1.6220    0.6010 hn        1 MOL      0.264607
     67 H27         6.9470    4.4390    1.0640 h1        1 MOL      0.117745
     68 H28         6.4730    3.2810    2.3040 h1        1 MOL      0.117745
     69 N8          3.7370    3.9600    0.9880 n         1 MOL     -0.054518
     70 C22         2.4580    4.6110    1.2190 c3        1 MOL     -0.549796
     71 C23         1.3190    3.6360    1.2970 c         1 MOL      0.888547
     72 O13         1.5240    2.5520    0.8190 o         1 MOL     -0.643647
     73 C24         2.1920    5.6210    0.0800 c3        1 MOL      0.588328
     74 C25         3.0170    6.8960    0.3000 c3        1 MOL     -0.552269
     75 O14         2.4100    5.0560   -1.2260 oh        1 MOL     -0.607452
     76 H29         3.7180    3.1440    0.3970 hn        1 MOL      0.221371
     77 H30         2.4440    5.1760    2.1630 h1        1 MOL      0.157182
     78 H31         1.1410    5.9010    0.0700 h1        1 MOL     -0.037448
     79 H32         2.4240    4.0960   -1.2110 ho        1 MOL      0.311071
     80 H33         2.7780    7.5580   -0.5360 hc        1 MOL      0.144364
     81 H34         2.8480    7.3110    1.2990 hc        1 MOL      0.144364
     82 H35         3.9730    6.4340    0.0830 hc        1 MOL      0.144364
     83 N9          0.1850    3.9120    2.0140 n         1 MOL     -0.728819
     84 C26        -0.9630    3.0710    1.9910 c3        1 MOL      0.064243
     85 C27        -1.7190    3.2760    0.6860 c         1 MOL      0.541661
     86 O15        -2.1380    4.4460    0.4320 o         1 MOL     -0.573158
     87 C28        -1.9000    3.2830    3.2740 c3        1 MOL      0.131510
     88 C29        -1.1410    3.2780    4.6150 c3        1 MOL      0.159332
     89 C30        -2.7390    1.9650    3.2800 c3        1 MOL     -0.645970
     90 C31        -2.0600    3.6270    5.7830 c3        1 MOL     -0.013260
     91 H36         0.0450    4.8530    2.3640 hn        1 MOL      0.339929
     92 H37        -0.6490    2.0330    2.0020 h1        1 MOL      0.086717
     93 H38        -2.4470    4.2130    3.1330 hc        1 MOL      0.009711
     94 H39        -0.3060    3.9800    4.6410 hc        1 MOL     -0.040195
     95 H40        -0.7220    2.2850    4.7800 hc        1 MOL     -0.040195
     96 H41        -2.1620    1.1500    3.7120 hc        1 MOL      0.161309
     97 H42        -3.6620    2.0370    3.8620 hc        1 MOL      0.161309
     98 H43        -3.0000    1.6700    2.2670 hc        1 MOL      0.161309
     99 H44        -1.5300    3.6110    6.7320 hc        1 MOL     -0.012189
    100 H45        -2.3880    4.6480    5.5900 hc        1 MOL     -0.012189
    101 H46        -2.9920    3.0710    5.8770 hc        1 MOL     -0.012189
    102 N10        -1.8350    2.1920   -0.1140 n         1 MOL     -0.380913
    103 C32        -2.7140    2.1270   -1.2500 c3        1 MOL      0.108231
    104 C33        -4.1170    1.5760   -0.8940 c         1 MOL      0.461317
    105 O16        -4.3980    1.1550    0.2440 o         1 MOL     -0.331222
    106 C34        -2.0180    1.2520   -2.3410 c3        1 MOL     -0.300409
    107 C35        -0.5580    1.6360   -2.6770 c         1 MOL      0.786176
    108 O17        -0.3910    2.4250   -3.6430 o         1 MOL     -0.699289
    109 O18         0.3970    1.2480   -1.9700 o         1 MOL     -0.699289
    110 H47        -1.5120    1.2930    0.2260 hn        1 MOL      0.325126
    111 H48        -2.9390    3.1360   -1.5890 h1        1 MOL      0.076403
    112 H49        -2.6030    1.1900   -3.2500 hc        1 MOL      0.068007
    113 H50        -2.0080    0.2590   -1.8740 hc        1 MOL      0.068007
    114 N11        -5.0930    1.6570   -1.8180 n         1 MOL     -0.805016
    115 C36        -6.4330    1.3100   -1.4740 c3        1 MOL      0.802521
    116 C37        -6.5690   -0.2280   -1.2360 c         1 MOL      0.160899
    117 O19        -7.1190   -0.6200   -0.1770 o         1 MOL     -0.516309
    118 C38        -7.4640    1.8830   -2.3590 c3        1 MOL     -0.433252
    119 C39        -8.8750    1.4900   -1.8630 ca        1 MOL      0.050636
    120 C40        -9.7200    0.7580   -2.6700 ca        1 MOL     -0.034169
    121 C41        -9.3930    1.9210   -0.6170 ca        1 MOL     -0.034169
    122 C42       -11.0120    0.5080   -2.2440 ca        1 MOL     -0.274324
    123 C43       -10.6690    1.6710   -0.1750 ca        1 MOL     -0.274324
    124 C44       -11.4360    0.8630   -0.9490 ca        1 MOL      0.086318
    125 H51        -5.0010    2.1430   -2.6960 hn        1 MOL      0.347615
    126 H52        -6.5300    1.7230   -0.4660 h1        1 MOL     -0.044503
    127 H53        -7.2570    1.4230   -3.3210 hc        1 MOL      0.097480
    128 H54        -7.3650    2.9660   -2.3630 hc        1 MOL      0.097480
    129 H55        -9.4250    0.4590   -3.6580 ha        1 MOL      0.086119
    130 H56        -8.7000    2.4610   -0.0010 ha        1 MOL      0.086119
    131 H57       -11.6600    0.0430   -2.9600 ha        1 MOL      0.140030
    132 H58       -10.9780    1.8790    0.8350 ha        1 MOL      0.140030
    133 H59       -12.4270    0.5190   -0.6940 ha        1 MOL      0.049989
    134 N12        -5.9020   -1.0850   -2.0070 n         1 MOL     -0.043224
    135 C45        -5.8740   -2.5260   -1.7330 c3        1 MOL      0.069319
    136 C46        -5.1120   -3.0140   -0.5010 c         1 MOL      0.290608
    137 O20        -5.1070   -4.1740   -0.1930 o         1 MOL     -0.510098
    138 C47        -5.4030   -3.2050   -3.0160 c3        1 MOL     -0.243483
    139 C48        -5.7200   -2.2240   -4.0930 c3        1 MOL     -0.019877
    140 C49        -5.4270   -0.8740   -3.4020 c3        1 MOL     -0.058301
    141 H60        -6.8830   -2.8760   -1.5090 h1        1 MOL      0.088469
    142 H61        -4.3160   -3.1610   -3.0050 hc        1 MOL      0.112473
    143 H62        -5.8420   -4.1870   -3.1690 hc        1 MOL      0.112473
    144 H63        -5.0530   -2.2930   -4.9430 hc        1 MOL      0.027364
    145 H64        -6.7870   -2.1880   -4.3350 hc        1 MOL      0.027364
    146 H65        -4.3430   -0.7220   -3.3520 h1        1 MOL      0.063454
    147 H66        -5.9340   -0.0980   -3.9680 h1        1 MOL      0.063454
    148 N13        -4.5910   -2.0940    0.3210 n         1 MOL      0.057380
    149 C50        -3.9490   -2.3400    1.5730 c3        1 MOL     -0.197818
    150 C51        -4.6530   -1.7000    2.6890 c         1 MOL      0.448775
    151 O21        -4.6730   -2.1520    3.8430 o         1 MOL     -0.553984
    152 C52        -2.4520   -1.9670    1.5150 c3        1 MOL      0.091880
    153 C53        -1.5470   -2.4760    0.4050 c3        1 MOL     -0.067462
    154 C54        -0.2190   -1.6380    0.3550 c         1 MOL      0.685010
    155 O22         0.7590   -2.2000   -0.2100 o         1 MOL     -0.802928
    156 O23        -0.1310   -0.4750    0.8530 o         1 MOL     -0.802928
    157 H67        -4.4930   -1.1190    0.0610 hn        1 MOL      0.030640
    158 H68        -4.1200   -3.4140    1.7310 h1        1 MOL      0.116455
    159 H69        -2.0090   -2.1570    2.4950 hc        1 MOL      0.008837
    160 H70        -2.4650   -0.8860    1.3520 hc        1 MOL      0.008837
    161 H71        -2.1140   -2.4100   -0.5310 hc        1 MOL      0.038884
    162 H72        -1.3330   -3.5220    0.6220 hc        1 MOL      0.038884
    163 N14        -5.1670   -0.4970    2.4110 n         1 MOL     -0.052508
    164 C55        -6.0970    0.1720    3.3370 c3        1 MOL     -0.267879
    165 H73        -7.0870   -0.2760    3.2430 h1        1 MOL      0.094450
    166 H74        -5.7400    0.0540    4.3600 h1        1 MOL      0.094450
    167 H75        -6.1540    1.2330    3.0920 h1        1 MOL      0.094450
    168 H76        -5.0970   -0.0630    1.5030 hn        1 MOL      0.078149
    169 Ca1         2.1230    0.0780   -0.1980 Ca        1 MOL      1.715348
    170 O24         3.7140    1.0510    1.6610 oh        1 MOL     -0.930077
    171 H77         4.4700    0.6350    2.0800 ho        1 MOL      0.440529
    172 H78         3.0030    0.9420    2.2910 ho        1 MOL      0.440529
@<TRIPOS>BOND
     1    1    2 1   
     2    1    4 1   
     3    1    5 1   
     4    1    6 1   
     5    2    3 2   
     6    2    7 1   
     7    7    8 1   
     8    7   15 1   
     9    8    9 1   
    10    8   11 1   
    11    8   16 1   
    12    9   10 2   
    13    9   19 1   
    14   11   12 1   
    15   11   17 1   
    16   11   18 1   
    17   12   13 1   
    18   12   14 1   
    19   19   20 1   
    20   19   24 1   
    21   20   21 1   
    22   20   23 1   
    23   20   25 1   
    24   21   22 2   
    25   21   29 1   
    26   23   26 1   
    27   23   27 1   
    28   23   28 1   
    29   29   30 1   
    30   29   37 1   
    31   30   31 1   
    32   30   33 1   
    33   30   38 1   
    34   31   32 2   
    35   31   41 1   
    36   33   34 1   
    37   33   39 1   
    38   33   40 1   
    39   34   35 1   
    40   34   36 1   
    41   41   42 1   
    42   41   45 1   
    43   42   43 1   
    44   42   46 1   
    45   42   47 1   
    46   43   44 2   
    47   43   48 1   
    48   48   49 1   
    49   48   56 1   
    50   49   50 1   
    51   49   52 1   
    52   49   57 1   
    53   50   51 2   
    54   50   62 1   
    55   52   53 1   
    56   52   58 1   
    57   52   59 1   
    58   53   54 1   
    59   53   55 2   
    60   54   60 1   
    61   54   61 1   
    62   62   63 1   
    63   62   66 1   
    64   63   64 1   
    65   63   67 1   
    66   63   68 1   
    67   64   65 2   
    68   64   69 1   
    69   69   70 1   
    70   69   76 1   
    71   70   71 1   
    72   70   73 1   
    73   70   77 1   
    74   71   72 2   
    75   71   83 1   
    76   73   74 1   
    77   73   75 1   
    78   73   78 1   
    79   74   80 1   
    80   74   81 1   
    81   74   82 1   
    82   75   79 1   
    83   83   84 1   
    84   83   91 1   
    85   84   85 1   
    86   84   87 1   
    87   84   92 1   
    88   85   86 2   
    89   85  102 1   
    90   87   88 1   
    91   87   89 1   
    92   87   93 1   
    93   88   90 1   
    94   88   94 1   
    95   88   95 1   
    96   89   96 1   
    97   89   97 1   
    98   89   98 1   
    99   90   99 1   
   100   90  100 1   
   101   90  101 1   
   102  102  103 1   
   103  102  110 1   
   104  103  104 1   
   105  103  106 1   
   106  103  111 1   
   107  104  105 2   
   108  104  114 1   
   109  106  107 1   
   110  106  112 1   
   111  106  113 1   
   112  107  108 1   
   113  107  109 1   
   114  114  115 1   
   115  114  125 1   
   116  115  116 1   
   117  115  118 1   
   118  115  126 1   
   119  116  117 2   
   120  116  134 1   
   121  118  119 1   
   122  118  127 1   
   123  118  128 1   
   124  119  120 ar  
   125  119  121 ar  
   126  120  122 ar  
   127  120  129 1   
   128  121  123 ar  
   129  121  130 1   
   130  122  124 ar  
   131  122  131 1   
   132  123  124 ar  
   133  123  132 1   
   134  124  133 1   
   135  134  135 1   
   136  134  140 1   
   137  135  136 1   
   138  135  138 1   
   139  135  141 1   
   140  136  137 2   
   141  136  148 1   
   142  138  139 1   
   143  138  142 1   
   144  138  143 1   
   145  139  140 1   
   146  139  144 1   
   147  139  145 1   
   148  140  146 1   
   149  140  147 1   
   150  148  149 1   
   151  148  157 1   
   152  149  150 1   
   153  149  152 1   
   154  149  158 1   
   155  150  151 2   
   156  150  163 1   
   157  152  153 1   
   158  152  159 1   
   159  152  160 1   
   160  153  154 1   
   161  153  161 1   
   162  153  162 1   
   163  154  155 1   
   164  154  156 1   
   165  163  164 1   
   166  163  168 1   
   167  164  165 1   
   168  164  166 1   
   169  164  167 1   
   170  170  171 1   
   171  170  172 1   
@<TRIPOS>SUBSTRUCTURE
     1 MOL         1 TEMP              0 ****  ****    0 ROOT
