@<TRIPOS>MOLECULE
MOL
  175   173     1     0     0
SMALL
resp


@<TRIPOS>ATOM
      1 C1          0.3140   -4.2640    5.5840 c3        1 MOL     -0.500247
      2 C2          0.7320   -4.2600    4.0980 c         1 MOL      0.748217
      3 O1         -0.0460   -4.3360    3.1430 o         1 MOL     -0.584312
      4 H1          0.9800   -4.9180    6.1460 hc        1 MOL      0.126538
      5 H2          0.3770   -3.2520    5.9830 hc        1 MOL      0.126538
      6 H3         -0.7110   -4.6270    5.6720 hc        1 MOL      0.126538
      7 N1          2.0370   -4.1690    3.8210 n         1 MOL     -0.668754
      8 C3          2.5390   -3.6510    2.5550 c3        1 MOL      0.374471
      9 C4          2.7120   -4.6740    1.4600 c         1 MOL      0.587365
     10 O2          3.3500   -5.7120    1.7410 o         1 MOL     -0.613215
     11 C5          3.8060   -2.8450    2.7930 c3        1 MOL     -0.474780
     12 C6          4.3710   -2.1470    1.5650 c         1 MOL      0.854214
     13 O3          5.5360   -1.6900    1.6590 o         1 MOL     -0.695487
     14 O4          3.6540   -1.9160    0.5870 o         1 MOL     -0.695487
     15 H4          2.6290   -4.1220    4.6390 hn        1 MOL      0.310076
     16 H5          1.7700   -2.9570    2.1950 h1        1 MOL     -0.031233
     17 H6          4.6210   -3.5370    3.0090 hc        1 MOL      0.094443
     18 H7          3.7120   -2.1140    3.5940 hc        1 MOL      0.094443
     19 N2          2.1350   -4.4910    0.2670 n         1 MOL     -0.515680
     20 C7          2.0800   -5.4630   -0.7470 c3        1 MOL      0.382282
     21 C8          3.1890   -5.1740   -1.8280 c         1 MOL      0.350131
     22 O5          3.2370   -5.8040   -2.8670 o         1 MOL     -0.537412
     23 C9          0.7510   -5.4650   -1.4280 c3        1 MOL     -0.380568
     24 H8          1.8280   -3.5450    0.0880 hn        1 MOL      0.379983
     25 H9          2.3070   -6.4370   -0.2940 h1        1 MOL      0.004132
     26 H10         0.0290   -5.5030   -0.6110 hc        1 MOL      0.094127
     27 H11         0.6780   -4.4700   -1.8680 hc        1 MOL      0.094127
     28 H12         0.6280   -6.3550   -2.0420 hc        1 MOL      0.094127
     29 N3          3.9470   -4.0770   -1.6480 n         1 MOL     -0.388595
     30 C10         4.6680   -3.4750   -2.7740 c3        1 MOL      0.417464
     31 C11         6.0630   -2.8540   -2.4930 c         1 MOL      0.277052
     32 O6          7.0180   -3.1270   -3.2190 o         1 MOL     -0.557687
     33 C12         3.8430   -2.4550   -3.5530 c3        1 MOL     -0.211939
     34 C13         3.1660   -1.4860   -2.6570 c         1 MOL      0.793989
     35 O7          3.8580   -0.7360   -1.9760 o         1 MOL     -0.742597
     36 O8          1.9130   -1.4280   -2.5530 o         1 MOL     -0.742597
     37 H13         3.7440   -3.5840   -0.7860 hn        1 MOL      0.133744
     38 H14         4.9390   -4.2810   -3.4580 h1        1 MOL     -0.004687
     39 H15         3.1440   -2.9290   -4.2410 hc        1 MOL      0.034952
     40 H16         4.5250   -1.8320   -4.1240 hc        1 MOL      0.034952
     41 N4          6.2110   -2.1280   -1.4170 n         1 MOL     -0.023030
     42 C14         7.4540   -1.3830   -0.9470 c3        1 MOL     -0.321149
     43 C15         7.3340    0.1320   -1.0920 c         1 MOL      0.556027
     44 O9          8.2830    0.8590   -0.7830 o         1 MOL     -0.601171
     45 H17         5.3900   -1.8680   -0.8920 hn        1 MOL     -0.005893
     46 H18         8.3070   -1.6560   -1.5770 h1        1 MOL      0.152274
     47 H19         7.6830   -1.5430    0.1040 h1        1 MOL      0.152274
     48 N5          6.1790    0.7170   -1.5030 n         1 MOL     -0.274509
     49 C16         6.1440    2.0550   -2.1050 c3        1 MOL      0.015946
     50 C17         6.3180    3.1600   -1.1560 c         1 MOL      0.483838
     51 O10         6.7430    4.2670   -1.5120 o         1 MOL     -0.586233
     52 C18         4.9420    1.9570   -3.0500 c3        1 MOL     -0.120522
     53 C19         3.5570    2.1660   -2.4890 c         1 MOL      0.684165
     54 N6          2.5430    2.1200   -3.3420 n         1 MOL     -0.711205
     55 O11         3.2880    2.3600   -1.3330 o         1 MOL     -0.544772
     56 H20         5.3630    0.1460   -1.7080 hn        1 MOL      0.268299
     57 H21         7.0170    2.0530   -2.7550 h1        1 MOL      0.067859
     58 H22         4.9210    0.9970   -3.5600 hc        1 MOL      0.019890
     59 H23         5.0360    2.7530   -3.7920 hc        1 MOL      0.019890
     60 H24         2.6910    1.9580   -4.3290 hn        1 MOL      0.326988
     61 H25         1.6120    2.2530   -2.9700 hn        1 MOL      0.326988
     62 N7          6.0160    2.9240    0.1010 n         1 MOL     -0.106821
     63 C20         6.2330    3.8120    1.2610 c3        1 MOL     -0.295973
     64 C21         4.9560    4.6190    1.5950 c         1 MOL      0.545325
     65 O12         5.0160    5.6310    2.2680 o         1 MOL     -0.575518
     66 H26         5.5910    2.0430    0.3640 hn        1 MOL      0.160824
     67 H27         7.0320    4.4570    0.8920 h1        1 MOL      0.130507
     68 H28         6.5710    3.2820    2.1520 h1        1 MOL      0.130507
     69 N8          3.7730    4.2600    1.0700 n         1 MOL     -0.173749
     70 C22         2.4130    4.7790    1.3120 c3        1 MOL     -0.295698
     71 C23         1.4240    3.6080    1.4620 c         1 MOL      0.626064
     72 O13         1.6670    2.5010    0.9670 o         1 MOL     -0.566134
     73 C24         2.0120    5.7060    0.1790 c3        1 MOL      0.469187
     74 C25         2.6470    7.0960    0.0810 c3        1 MOL     -0.585101
     75 O14         2.0900    5.1350   -1.1120 oh        1 MOL     -0.536153
     76 H29         3.8670    3.3630    0.6180 hn        1 MOL      0.143272
     77 H30         2.4700    5.3070    2.2700 h1        1 MOL      0.124776
     78 H31         0.9460    5.8490    0.3290 h1        1 MOL      0.010342
     79 H32         2.8010    4.4850   -1.0290 ho        1 MOL      0.291303
     80 H33         3.6530    7.0230   -0.3290 hc        1 MOL      0.145923
     81 H34         2.2200    7.7290   -0.7040 hc        1 MOL      0.145923
     82 H35         2.5930    7.5500    1.0690 hc        1 MOL      0.145923
     83 N9          0.3720    3.7460    2.2600 n         1 MOL     -0.456159
     84 C26        -0.7870    2.8110    2.1460 c3        1 MOL      0.006065
     85 C27        -1.6210    3.0900    0.9890 c         1 MOL      0.480378
     86 O15        -1.9940    4.2160    0.6610 o         1 MOL     -0.599632
     87 C28        -1.5200    2.7200    3.4840 c3        1 MOL      0.115484
     88 C29        -0.7200    1.9740    4.6310 c3        1 MOL      0.204861
     89 C30        -2.8970    1.8940    3.3630 c3        1 MOL     -0.258713
     90 C31        -1.3630    2.0200    6.0090 c3        1 MOL     -0.179740
     91 H36         0.2230    4.6700    2.6280 hn        1 MOL      0.272022
     92 H37        -0.4750    1.7800    1.9590 h1        1 MOL      0.018296
     93 H38        -1.7590    3.6930    3.9130 hc        1 MOL      0.002937
     94 H39         0.1900    2.5730    4.6390 hc        1 MOL     -0.066368
     95 H40        -0.4730    0.9660    4.2720 hc        1 MOL     -0.066368
     96 H41        -3.4260    1.9840    4.3070 hc        1 MOL      0.046292
     97 H42        -3.5370    2.3140    2.5730 hc        1 MOL      0.046292
     98 H43        -2.6670    0.8540    3.1200 hc        1 MOL      0.046292
     99 H44        -0.6280    1.8130    6.7890 hc        1 MOL      0.032796
    100 H45        -1.6130    3.0780    6.0860 hc        1 MOL      0.032796
    101 H46        -2.1590    1.2890    6.1060 hc        1 MOL      0.032796
    102 N10        -1.8310    2.0080    0.2370 n         1 MOL     -0.155771
    103 C32        -2.7310    2.0760   -0.9860 c3        1 MOL      0.201189
    104 C33        -4.1680    1.6260   -0.6690 c         1 MOL      0.335870
    105 O16        -4.4350    1.1020    0.3740 o         1 MOL     -0.293347
    106 C34        -2.2470    1.4020   -2.1920 c3        1 MOL     -0.247805
    107 C35        -0.8000    1.6060   -2.5560 c         1 MOL      0.664097
    108 O17         0.1200    1.2750   -1.7450 o         1 MOL     -0.651618
    109 O18        -0.5490    2.1070   -3.6750 o         1 MOL     -0.651618
    110 H47        -1.5130    1.1180    0.5910 hn        1 MOL      0.102903
    111 H48        -2.9640    3.1060   -1.2370 h1        1 MOL      0.060192
    112 H49        -2.8780    1.7550   -3.0010 hc        1 MOL      0.038719
    113 H50        -2.3670    0.3400   -1.9380 hc        1 MOL      0.038719
    114 N11        -5.0990    1.9160   -1.5940 n         1 MOL     -0.684569
    115 C36        -6.5020    1.6290   -1.3630 c3        1 MOL      0.533362
    116 C37        -6.8190    0.1910   -0.9610 c         1 MOL      0.490647
    117 O19        -7.3920    0.0120    0.1000 o         1 MOL     -0.554852
    118 C38        -7.4490    2.1550   -2.5030 c3        1 MOL     -0.355235
    119 C39        -8.8200    1.5880   -2.2670 ca        1 MOL      0.217483
    120 C40        -9.6030    2.0920   -1.2250 ca        1 MOL     -0.249177
    121 C41        -9.4060    0.5800   -3.0910 ca        1 MOL     -0.249177
    122 C42       -10.8690    1.5930   -0.9440 ca        1 MOL     -0.027881
    123 C43       -10.6480    0.0710   -2.8870 ca        1 MOL     -0.027881
    124 C44       -11.3580    0.5940   -1.7720 ca        1 MOL     -0.193589
    125 H51        -4.8290    2.2660   -2.5070 hn        1 MOL      0.355202
    126 H52        -6.7840    2.2060   -0.4930 h1        1 MOL     -0.005728
    127 H53        -7.0460    1.8350   -3.4650 hc        1 MOL      0.080710
    128 H54        -7.4310    3.2450   -2.4440 hc        1 MOL      0.080710
    129 H55        -9.1700    2.8760   -0.6280 ha        1 MOL      0.126855
    130 H56        -8.8530    0.1200   -3.9040 ha        1 MOL      0.126855
    131 H57       -11.4990    2.0740   -0.2100 ha        1 MOL      0.100992
    132 H58       -11.1240   -0.6930   -3.4780 ha        1 MOL      0.100992
    133 H59       -12.3140    0.1700   -1.4800 ha        1 MOL      0.107238
    134 N12        -6.3510   -0.8780   -1.6650 n         1 MOL     -0.234446
    135 C45        -6.5500   -2.2780   -1.2220 c3        1 MOL      0.091466
    136 C46        -5.9450   -2.6700    0.1440 c         1 MOL      0.290081
    137 O20        -6.3040   -3.6150    0.7720 o         1 MOL     -0.491328
    138 C47        -5.9410   -3.0810   -2.3730 c3        1 MOL     -0.137473
    139 C48        -6.0390   -2.1460   -3.6240 c3        1 MOL      0.076692
    140 C49        -5.6380   -0.8550   -2.9900 c3        1 MOL     -0.181075
    141 H60        -7.5850   -2.6090   -1.1990 h1        1 MOL      0.069277
    142 H61        -4.9030   -3.3610   -2.1960 hc        1 MOL      0.059416
    143 H62        -6.6190   -3.9270   -2.5190 hc        1 MOL      0.059416
    144 H63        -5.4020   -2.4500   -4.4430 hc        1 MOL      0.006996
    145 H64        -7.0630   -2.1280   -4.0140 hc        1 MOL      0.006996
    146 H65        -4.5800   -0.8570   -2.7610 h1        1 MOL      0.098958
    147 H66        -5.9710   -0.0030   -3.5750 h1        1 MOL      0.098958
    148 N13        -5.0260   -1.8210    0.5540 n         1 MOL     -0.014110
    149 C50        -4.1710   -1.9690    1.7310 c3        1 MOL     -0.082179
    150 C51        -4.7900   -1.3020    3.0020 c         1 MOL      0.335663
    151 O21        -4.8380   -1.8960    4.0790 o         1 MOL     -0.532356
    152 C52        -2.7660   -1.4270    1.5720 c3        1 MOL     -0.079998
    153 C53        -1.8450   -2.1570    0.5600 c3        1 MOL     -0.327617
    154 C54        -0.4530   -1.6490    0.5070 c         1 MOL      0.873386
    155 O22        -0.2030   -0.5220    1.0330 o         1 MOL     -0.770584
    156 O23         0.4850   -2.2590   -0.0210 o         1 MOL     -0.770584
    157 H67        -4.8870   -0.9540    0.0470 hn        1 MOL      0.061111
    158 H68        -4.0830   -3.0320    1.9540 h1        1 MOL      0.106237
    159 H69        -2.2590   -1.4510    2.5320 hc        1 MOL      0.120858
    160 H70        -2.8120   -0.3740    1.2900 hc        1 MOL      0.120858
    161 H71        -2.2660   -2.0170   -0.4420 hc        1 MOL      0.102099
    162 H72        -1.8160   -3.2170    0.8380 hc        1 MOL      0.102099
    163 N14        -5.5390   -0.2350    2.6820 n         1 MOL      0.062046
    164 C55        -6.5030    0.4070    3.6090 c3        1 MOL     -0.140099
    165 H73        -7.1620    1.0680    3.0460 h1        1 MOL      0.056199
    166 H74        -7.0960   -0.3600    4.1060 h1        1 MOL      0.056199
    167 H75        -5.9600    0.9870    4.3550 h1        1 MOL      0.056199
    168 H76        -5.3700    0.2310    1.8070 hn        1 MOL      0.008682
    169 Ca1         2.0730   -0.0690   -0.2820 Ca        1 MOL      1.689733
    170 O24         4.3410    0.7170    1.0550 oh        1 MOL     -0.726963
    171 H77         4.0760    0.9580    1.9430 ho        1 MOL      0.368006
    172 H78         4.9410   -0.0140    1.1790 ho        1 MOL      0.368006
    173 O25         1.9780   -0.0790    2.8220 oh        1 MOL     -0.726963
    174 H79         2.1460   -0.1020    3.7620 ho        1 MOL      0.368006
    175 H80         1.0740   -0.3610    2.7300 ho        1 MOL      0.368006
@<TRIPOS>BOND
     1    1    2 1   
     2    1    4 1   
     3    1    5 1   
     4    1    6 1   
     5    2    3 2   
     6    2    7 1   
     7    7    8 1   
     8    7   15 1   
     9    8    9 1   
    10    8   11 1   
    11    8   16 1   
    12    9   10 2   
    13    9   19 1   
    14   11   12 1   
    15   11   17 1   
    16   11   18 1   
    17   12   13 1   
    18   12   14 1   
    19   19   20 1   
    20   19   24 1   
    21   20   21 1   
    22   20   23 1   
    23   20   25 1   
    24   21   22 2   
    25   21   29 1   
    26   23   26 1   
    27   23   27 1   
    28   23   28 1   
    29   29   30 1   
    30   29   37 1   
    31   30   31 1   
    32   30   33 1   
    33   30   38 1   
    34   31   32 2   
    35   31   41 1   
    36   33   34 1   
    37   33   39 1   
    38   33   40 1   
    39   34   35 1   
    40   34   36 1   
    41   41   42 1   
    42   41   45 1   
    43   42   43 1   
    44   42   46 1   
    45   42   47 1   
    46   43   44 2   
    47   43   48 1   
    48   48   49 1   
    49   48   56 1   
    50   49   50 1   
    51   49   52 1   
    52   49   57 1   
    53   50   51 2   
    54   50   62 1   
    55   52   53 1   
    56   52   58 1   
    57   52   59 1   
    58   53   54 1   
    59   53   55 2   
    60   54   60 1   
    61   54   61 1   
    62   62   63 1   
    63   62   66 1   
    64   63   64 1   
    65   63   67 1   
    66   63   68 1   
    67   64   65 2   
    68   64   69 1   
    69   69   70 1   
    70   69   76 1   
    71   70   71 1   
    72   70   73 1   
    73   70   77 1   
    74   71   72 2   
    75   71   83 1   
    76   73   74 1   
    77   73   75 1   
    78   73   78 1   
    79   74   80 1   
    80   74   81 1   
    81   74   82 1   
    82   75   79 1   
    83   83   84 1   
    84   83   91 1   
    85   84   85 1   
    86   84   87 1   
    87   84   92 1   
    88   85   86 2   
    89   85  102 1   
    90   87   88 1   
    91   87   89 1   
    92   87   93 1   
    93   88   90 1   
    94   88   94 1   
    95   88   95 1   
    96   89   96 1   
    97   89   97 1   
    98   89   98 1   
    99   90   99 1   
   100   90  100 1   
   101   90  101 1   
   102  102  103 1   
   103  102  110 1   
   104  103  104 1   
   105  103  106 1   
   106  103  111 1   
   107  104  105 2   
   108  104  114 1   
   109  106  107 1   
   110  106  112 1   
   111  106  113 1   
   112  107  108 1   
   113  107  109 1   
   114  114  115 1   
   115  114  125 1   
   116  115  116 1   
   117  115  118 1   
   118  115  126 1   
   119  116  117 2   
   120  116  134 1   
   121  118  119 1   
   122  118  127 1   
   123  118  128 1   
   124  119  120 ar  
   125  119  121 ar  
   126  120  122 ar  
   127  120  129 1   
   128  121  123 ar  
   129  121  130 1   
   130  122  124 ar  
   131  122  131 1   
   132  123  124 ar  
   133  123  132 1   
   134  124  133 1   
   135  134  135 1   
   136  134  140 1   
   137  135  136 1   
   138  135  138 1   
   139  135  141 1   
   140  136  137 2   
   141  136  148 1   
   142  138  139 1   
   143  138  142 1   
   144  138  143 1   
   145  139  140 1   
   146  139  144 1   
   147  139  145 1   
   148  140  146 1   
   149  140  147 1   
   150  148  149 1   
   151  148  157 1   
   152  149  150 1   
   153  149  152 1   
   154  149  158 1   
   155  150  151 2   
   156  150  163 1   
   157  152  153 1   
   158  152  159 1   
   159  152  160 1   
   160  153  154 1   
   161  153  161 1   
   162  153  162 1   
   163  154  155 1   
   164  154  156 1   
   165  163  164 1   
   166  163  168 1   
   167  164  165 1   
   168  164  166 1   
   169  164  167 1   
   170  170  171 1   
   171  170  172 1   
   172  173  174 1   
   173  173  175 1   
@<TRIPOS>SUBSTRUCTURE
     1 MOL         1 TEMP              0 ****  ****    0 ROOT
