@<TRIPOS>MOLECULE
MOL
  182   178     1     0     0
SMALL
resp


@<TRIPOS>ATOM
      1 C1          1.6750    3.9770    5.8390 c3        1 MOL     -0.305883
      2 C2          1.3040    3.3620    4.4500 c         1 MOL      0.705934
      3 O1          2.1700    3.3530    3.5800 o         1 MOL     -0.599498
      4 H1          1.0260    4.8290    6.0440 hc        1 MOL      0.077575
      5 H2          1.5410    3.2260    6.6170 hc        1 MOL      0.077575
      6 H3          2.7140    4.3070    5.8260 hc        1 MOL      0.077575
      7 N1          0.0500    3.0560    4.1310 n         1 MOL     -0.516629
      8 C3         -0.4270    2.7740    2.7740 c3        1 MOL      0.096613
      9 C4         -0.3920    4.0720    1.9510 c         1 MOL      0.413676
     10 O2         -0.5640    5.1640    2.4890 o         1 MOL     -0.572977
     11 C5         -1.8440    2.0790    2.8720 c3        1 MOL     -0.008881
     12 C6         -2.4850    1.7190    1.5290 c         1 MOL      0.756091
     13 O3         -3.6180    1.1370    1.5870 o         1 MOL     -0.733647
     14 O4         -1.8020    1.8360    0.5000 o         1 MOL     -0.733647
     15 H4         -0.6400    2.9570    4.8600 hn        1 MOL      0.292017
     16 H5          0.2010    2.0910    2.2080 h1        1 MOL     -0.016159
     17 H6         -2.5670    2.5900    3.5100 hc        1 MOL      0.003000
     18 H7         -1.5960    1.1540    3.3810 hc        1 MOL      0.003000
     19 N2          0.0680    3.9250    0.6830 n         1 MOL     -0.038675
     20 C7          0.2410    5.0660   -0.2450 c3        1 MOL     -0.123104
     21 C8         -0.8320    5.2180   -1.3480 c         1 MOL      0.439573
     22 O5         -0.7110    6.1240   -2.1360 o         1 MOL     -0.553168
     23 C9          1.7200    4.9900   -0.8130 c3        1 MOL     -0.066074
     24 C10         2.8630    4.7580    0.1980 c3        1 MOL      0.047534
     25 C11         3.1630    6.0390    1.0290 c3        1 MOL     -0.127206
     26 C12         3.8900    7.1100    0.2730 c3        1 MOL      0.201022
     27 N3          3.8470    8.4020    0.9220 n4        1 MOL     -0.461164
     28 H8          0.3840    3.0160    0.3730 hn        1 MOL      0.314878
     29 H9          0.1610    6.0030    0.3030 h1        1 MOL      0.084208
     30 H10         2.0210    5.8710   -1.3780 hc        1 MOL      0.023341
     31 H11         1.7820    4.1720   -1.5410 hc        1 MOL      0.023341
     32 H12         3.7670    4.6040   -0.3760 hc        1 MOL      0.022228
     33 H13         2.5780    3.8760    0.7790 hc        1 MOL      0.022228
     34 H14         3.7670    5.7790    1.8980 hc        1 MOL      0.057866
     35 H15         2.1970    6.4320    1.3120 hc        1 MOL      0.057866
     36 H16         3.5310    7.1980   -0.7580 hx        1 MOL      0.042616
     37 H17         4.9420    6.8300    0.1740 hx        1 MOL      0.042616
     38 H18         4.3770    8.2720    1.7690 hn        1 MOL      0.346476
     39 H19         4.2580    9.1690    0.4140 hn        1 MOL      0.346476
     40 H20         2.9350    8.7670    1.1480 hn        1 MOL      0.346476
     41 N4         -1.8050    4.3370   -1.5140 n         1 MOL     -0.109669
     42 C13        -2.9840    4.6290   -2.3950 c3        1 MOL     -0.134832
     43 C14        -4.3790    4.5410   -1.7030 c         1 MOL      0.467852
     44 O6         -5.3220    4.7680   -2.4240 o         1 MOL     -0.484625
     45 C15        -2.8910    3.7970   -3.7110 c3        1 MOL     -0.118969
     46 C16        -2.7560    2.2900   -3.5870 c         1 MOL      0.825231
     47 O7         -2.5400    1.6770   -4.6560 o         1 MOL     -0.733608
     48 O8         -2.8150    1.6510   -2.4890 o         1 MOL     -0.733608
     49 H21        -1.9520    3.5700   -0.8860 hn        1 MOL     -0.026834
     50 H22        -2.8690    5.6890   -2.6180 h1        1 MOL      0.134194
     51 H23        -2.0730    4.2340   -4.2830 hc        1 MOL      0.053226
     52 H24        -3.7330    3.9380   -4.3980 hc        1 MOL      0.053226
     53 N5         -4.4990    4.2420   -0.4240 n         1 MOL     -0.279187
     54 C17        -5.7360    3.9880    0.3090 c3        1 MOL     -0.268194
     55 C18        -6.5200    2.7200   -0.2070 c         1 MOL      0.524164
     56 O9         -7.7280    2.7270   -0.2810 o         1 MOL     -0.533075
     57 H25        -3.6780    4.0120    0.1180 hn        1 MOL      0.245528
     58 H26        -6.4370    4.8040    0.1460 h1        1 MOL      0.136226
     59 H27        -5.4400    3.7930    1.3450 h1        1 MOL      0.136226
     60 N6         -5.7730    1.7020   -0.6470 n         1 MOL     -0.153453
     61 C19        -6.3550    0.3990   -1.1010 c3        1 MOL     -0.106849
     62 C20        -6.4190   -0.7790   -0.0660 c         1 MOL      0.234017
     63 O10        -7.1970   -1.7650   -0.2070 o         1 MOL     -0.461638
     64 C21        -5.6520   -0.0570   -2.3820 c3        1 MOL     -0.108097
     65 C22        -4.6160   -1.0990   -2.1920 c         1 MOL      0.638654
     66 N7         -4.7900   -2.2830   -2.7910 n         1 MOL     -0.811687
     67 O11        -3.7260   -0.9730   -1.3520 o         1 MOL     -0.655146
     68 H28        -4.7640    1.6940   -0.6560 hn        1 MOL      0.170483
     69 H29        -7.4090    0.5100   -1.3750 h1        1 MOL      0.144647
     70 H30        -5.1440    0.7400   -2.9270 hc        1 MOL      0.069593
     71 H31        -6.3890   -0.4450   -3.0900 hc        1 MOL      0.069593
     72 H32        -5.5700   -2.4970   -3.3950 hn        1 MOL      0.389995
     73 H33        -4.1490   -3.0070   -2.4850 hn        1 MOL      0.389995
     74 N8         -5.7260   -0.6450    1.0690 n         1 MOL      0.096431
     75 C23        -5.8800   -1.5310    2.2370 c3        1 MOL     -0.578783
     76 C24        -4.8080   -2.5430    2.3400 c         1 MOL      0.842225
     77 O12        -4.7730   -3.3760    3.2630 o         1 MOL     -0.628658
     78 H34        -5.0970    0.1350    1.2030 hn        1 MOL      0.115916
     79 H35        -6.7900   -2.1170    2.1110 h1        1 MOL      0.194125
     80 H36        -5.9400   -0.8610    3.0920 h1        1 MOL      0.194125
     81 N9         -3.7650   -2.3680    1.5740 n         1 MOL     -0.735263
     82 C25        -2.6030   -3.2500    1.4260 c3        1 MOL      0.292198
     83 C26        -1.3420   -2.4220    1.3160 c         1 MOL      0.653776
     84 O13        -1.3970   -1.3830    0.6560 o         1 MOL     -0.792240
     85 C27        -2.8940   -4.2100    0.2430 c3        1 MOL     -0.057036
     86 C28        -4.2130   -5.0340    0.3100 ca        1 MOL     -0.203897
     87 C29        -5.5030   -4.5600   -0.0840 ca        1 MOL      0.035867
     88 C30        -4.0950   -6.3160    0.9040 ca        1 MOL      0.035867
     89 C31        -6.6080   -5.3790   -0.0100 ca        1 MOL     -0.379869
     90 C32        -5.2200   -7.1230    0.9970 ca        1 MOL     -0.379869
     91 C33        -6.5060   -6.6450    0.6110 ca        1 MOL      0.446807
     92 O14        -7.6110   -7.4510    0.6920 oh        1 MOL     -0.481797
     93 H37        -3.8940   -1.6840    0.8360 hn        1 MOL      0.595321
     94 H38        -2.5020   -3.8660    2.3250 h1        1 MOL      0.017596
     95 H39        -2.0420   -4.8790    0.1350 hc        1 MOL      0.011959
     96 H40        -3.0080   -3.5780   -0.6430 hc        1 MOL      0.011959
     97 H41        -5.6400   -3.6450   -0.6420 ha        1 MOL      0.079877
     98 H42        -3.1390   -6.7750    1.0970 ha        1 MOL      0.079877
     99 H43        -7.5980   -5.1030   -0.3310 ha        1 MOL      0.163740
    100 H44        -5.1680   -8.1420    1.3290 ha        1 MOL      0.163740
    101 H45        -7.3650   -8.3380    0.9510 ho        1 MOL      0.341545
    102 N10        -0.2790   -2.9320    1.8930 n         1 MOL     -0.651288
    103 C34         1.0280   -2.3030    1.7940 c3        1 MOL      0.086802
    104 C35         1.9600   -3.3150    1.1870 c         1 MOL      0.441238
    105 O15         2.3070   -4.3370    1.7500 o         1 MOL     -0.533916
    106 C36         1.3860   -1.9260    3.2510 c3        1 MOL      0.235279
    107 C37         0.4080   -0.8860    3.8460 c3        1 MOL      0.093298
    108 C38         2.8440   -1.3620    3.2850 c3        1 MOL     -0.394413
    109 C39         0.8790   -0.2050    5.1770 c3        1 MOL     -0.402321
    110 H46        -0.3560   -3.7230    2.5170 hn        1 MOL      0.334798
    111 H47         0.9860   -1.3560    1.2640 h1        1 MOL      0.077883
    112 H48         1.3520   -2.8220    3.8650 hc        1 MOL     -0.024450
    113 H49        -0.5670   -1.3490    3.9760 hc        1 MOL      0.019824
    114 H50         0.2520   -0.0450    3.1700 hc        1 MOL      0.019824
    115 H51         2.7510   -0.3990    2.7910 hc        1 MOL      0.093236
    116 H52         3.2150   -1.3070    4.3120 hc        1 MOL      0.093236
    117 H53         3.5240   -2.0090    2.7190 hc        1 MOL      0.093236
    118 H54         1.0320   -0.9540    5.9600 hc        1 MOL      0.094990
    119 H55         1.8690    0.2580    5.0630 hc        1 MOL      0.094990
    120 H56         0.1630    0.5750    5.4400 hc        1 MOL      0.094990
    121 N11         2.4740   -2.9850    0.0100 n         1 MOL     -0.116057
    122 C40         3.2850   -3.8030   -0.7900 c3        1 MOL     -0.295449
    123 C41         4.7150   -3.7840   -0.2370 c         1 MOL      0.472840
    124 O16         5.0400   -2.7650    0.3300 o         1 MOL     -0.346713
    125 C42         3.0860   -3.3300   -2.2600 c3        1 MOL     -0.021246
    126 O17         3.3360   -1.9220   -2.4260 oh        1 MOL     -0.488104
    127 H57         2.2570   -2.0930   -0.4230 hn        1 MOL      0.357443
    128 H58         2.8810   -4.8050   -0.6260 h1        1 MOL      0.106618
    129 H59         2.0260   -3.5010   -2.4730 h1        1 MOL      0.091666
    130 H60         3.6730   -3.8490   -3.0150 h1        1 MOL      0.091666
    131 H61         2.6160   -1.4630   -1.9810 ho        1 MOL      0.298370
    132 N12         5.5830   -4.7030   -0.6740 n         1 MOL     -0.389367
    133 C43         6.9750   -4.4850   -0.3810 c3        1 MOL      0.034195
    134 C44         7.5250   -3.2500   -1.0370 c         1 MOL      0.556101
    135 O18         8.4210   -2.6180   -0.5410 o         1 MOL     -0.506939
    136 C45         7.7850   -5.7530   -0.7930 c3        1 MOL     -0.435623
    137 H62         5.3620   -5.4670   -1.2960 hn        1 MOL      0.291513
    138 H63         6.9500   -4.2420    0.6740 h1        1 MOL      0.115985
    139 H64         8.8150   -5.4680   -0.5830 hc        1 MOL      0.137496
    140 H65         7.5020   -6.5210   -0.0680 hc        1 MOL      0.137496
    141 H66         7.7270   -6.0660   -1.8380 hc        1 MOL      0.137496
    142 N13         7.0120   -2.9170   -2.2430 n         1 MOL     -0.486983
    143 C46         7.3580   -1.6170   -2.9110 c3        1 MOL      0.180135
    144 C47         7.0410   -0.3300   -2.0410 c         1 MOL      0.291537
    145 O19         7.8170    0.5940   -1.8790 o         1 MOL     -0.508460
    146 C48         6.5210   -1.7100   -4.2350 c3        1 MOL     -0.194270
    147 H67         6.3040   -3.5070   -2.6710 hn        1 MOL      0.288835
    148 H68         8.3800   -1.5480   -3.2890 h1        1 MOL      0.062345
    149 H69         5.4410   -1.7260   -4.0430 hc        1 MOL      0.058557
    150 H70         6.6550   -0.8580   -4.9010 hc        1 MOL      0.058557
    151 H71         6.7540   -2.6340   -4.7560 hc        1 MOL      0.058557
    152 N14         5.9080   -0.3090   -1.3990 n         1 MOL      0.215685
    153 C49         5.6370    0.6960   -0.3330 c3        1 MOL     -0.578396
    154 C50         6.6400    0.5380    0.8540 c         1 MOL      0.635004
    155 O20         7.0240    1.5610    1.4210 o         1 MOL     -0.561093
    156 C51         4.1420    0.7160    0.0050 c3        1 MOL      0.041275
    157 C52         3.1910    1.1970   -1.1500 c3        1 MOL      0.095330
    158 C53         1.8680    0.6350   -0.8460 c         1 MOL      0.726161
    159 O21         1.5560   -0.5490   -1.1560 o         1 MOL     -0.770621
    160 O22         1.0550    1.3950   -0.2960 o         1 MOL     -0.770621
    161 H72         5.2630   -1.0380   -1.6770 hn        1 MOL     -0.086041
    162 H73         5.8960    1.6570   -0.7600 h1        1 MOL      0.196729
    163 H74         3.9190    1.2740    0.9150 hc        1 MOL      0.049957
    164 H75         3.8340   -0.2610    0.3670 hc        1 MOL      0.049957
    165 H76         3.6030    1.0500   -2.1460 hc        1 MOL     -0.021359
    166 H77         3.1600    2.2900   -1.0720 hc        1 MOL     -0.021359
    167 N15         6.9220   -0.6970    1.3490 n         1 MOL     -0.171482
    168 C54         7.7340   -0.8600    2.6170 c3        1 MOL     -0.232139
    169 H78         8.7030   -1.2960    2.3740 h1        1 MOL      0.103147
    170 H79         7.8820    0.1140    3.0830 h1        1 MOL      0.103147
    171 H80         7.2030   -1.5170    3.3060 h1        1 MOL      0.103147
    172 H81         6.5000   -1.4710    0.8430 hn        1 MOL      0.111758
    173 Ca1        -1.1200    0.0570   -1.4400 Ca        1 MOL      1.846566
    174 O23        -1.2150   -0.5640   -4.2120 oh        1 MOL     -0.861967
    175 H82        -1.6350    0.2600   -4.4730 ho        1 MOL      0.408618
    176 H83        -0.7990   -0.8870   -5.0020 ho        1 MOL      0.408618
    177 O24        -0.9600   -2.7030   -1.9110 oh        1 MOL     -0.861967
    178 H84        -0.4440   -3.4720   -1.6720 ho        1 MOL      0.408618
    179 H85        -1.4430   -2.9780   -2.6910 ho        1 MOL      0.408618
    180 O25         0.4740    1.4300   -3.1760 oh        1 MOL     -0.861967
    181 H86         1.0420    0.8560   -3.6990 ho        1 MOL      0.408618
    182 H87         0.7760    2.3170   -3.3980 ho        1 MOL      0.408618
@<TRIPOS>BOND
     1    1    2 1   
     2    1    4 1   
     3    1    5 1   
     4    1    6 1   
     5    2    3 2   
     6    2    7 1   
     7    7    8 1   
     8    7   15 1   
     9    8    9 1   
    10    8   11 1   
    11    8   16 1   
    12    9   10 2   
    13    9   19 1   
    14   11   12 1   
    15   11   17 1   
    16   11   18 1   
    17   12   13 1   
    18   12   14 1   
    19   19   20 1   
    20   19   28 1   
    21   20   21 1   
    22   20   23 1   
    23   20   29 1   
    24   21   22 2   
    25   21   41 1   
    26   23   24 1   
    27   23   30 1   
    28   23   31 1   
    29   24   25 1   
    30   24   32 1   
    31   24   33 1   
    32   25   26 1   
    33   25   34 1   
    34   25   35 1   
    35   26   27 1   
    36   26   36 1   
    37   26   37 1   
    38   27   38 1   
    39   27   39 1   
    40   27   40 1   
    41   41   42 1   
    42   41   49 1   
    43   42   43 1   
    44   42   45 1   
    45   42   50 1   
    46   43   44 2   
    47   43   53 1   
    48   45   46 1   
    49   45   51 1   
    50   45   52 1   
    51   46   47 1   
    52   46   48 1   
    53   53   54 1   
    54   53   57 1   
    55   54   55 1   
    56   54   58 1   
    57   54   59 1   
    58   55   56 2   
    59   55   60 1   
    60   60   61 1   
    61   60   68 1   
    62   61   62 1   
    63   61   64 1   
    64   61   69 1   
    65   62   63 2   
    66   62   74 1   
    67   64   65 1   
    68   64   70 1   
    69   64   71 1   
    70   65   66 1   
    71   65   67 2   
    72   66   72 1   
    73   66   73 1   
    74   74   75 1   
    75   74   78 1   
    76   75   76 1   
    77   75   79 1   
    78   75   80 1   
    79   76   77 2   
    80   76   81 1   
    81   81   82 1   
    82   81   93 1   
    83   82   83 1   
    84   82   85 1   
    85   82   94 1   
    86   83   84 2   
    87   83  102 1   
    88   85   86 1   
    89   85   95 1   
    90   85   96 1   
    91   86   87 ar  
    92   86   88 ar  
    93   87   89 ar  
    94   87   97 1   
    95   88   90 ar  
    96   88   98 1   
    97   89   91 ar  
    98   89   99 1   
    99   90   91 ar  
   100   90  100 1   
   101   91   92 1   
   102   92  101 1   
   103  102  103 1   
   104  102  110 1   
   105  103  104 1   
   106  103  106 1   
   107  103  111 1   
   108  104  105 2   
   109  104  121 1   
   110  106  107 1   
   111  106  108 1   
   112  106  112 1   
   113  107  109 1   
   114  107  113 1   
   115  107  114 1   
   116  108  115 1   
   117  108  116 1   
   118  108  117 1   
   119  109  118 1   
   120  109  119 1   
   121  109  120 1   
   122  121  122 1   
   123  121  127 1   
   124  122  123 1   
   125  122  125 1   
   126  122  128 1   
   127  123  124 2   
   128  123  132 1   
   129  125  126 1   
   130  125  129 1   
   131  125  130 1   
   132  126  131 1   
   133  132  133 1   
   134  132  137 1   
   135  133  134 1   
   136  133  136 1   
   137  133  138 1   
   138  134  135 2   
   139  134  142 1   
   140  136  139 1   
   141  136  140 1   
   142  136  141 1   
   143  142  143 1   
   144  142  147 1   
   145  143  144 1   
   146  143  146 1   
   147  143  148 1   
   148  144  145 2   
   149  144  152 1   
   150  146  149 1   
   151  146  150 1   
   152  146  151 1   
   153  152  153 1   
   154  152  161 1   
   155  153  154 1   
   156  153  156 1   
   157  153  162 1   
   158  154  155 2   
   159  154  167 1   
   160  156  157 1   
   161  156  163 1   
   162  156  164 1   
   163  157  158 1   
   164  157  165 1   
   165  157  166 1   
   166  158  159 1   
   167  158  160 1   
   168  167  168 1   
   169  167  172 1   
   170  168  169 1   
   171  168  170 1   
   172  168  171 1   
   173  174  175 1   
   174  174  176 1   
   175  177  178 1   
   176  177  179 1   
   177  180  181 1   
   178  180  182 1   
@<TRIPOS>SUBSTRUCTURE
     1 MOL         1 TEMP              0 ****  ****    0 ROOT
