@<TRIPOS>MOLECULE
MOL
  186   183     1     0     0
SMALL
resp


@<TRIPOS>ATOM
      1 C1         -0.0820   -2.9810   -5.8710 c3        1 MOL     -0.278073
      2 C2         -0.6050   -2.8670   -4.4080 c         1 MOL      0.751913
      3 O1          0.0770   -3.2910   -3.4500 o         1 MOL     -0.611494
      4 H1         -0.6920   -2.3570   -6.5240 hc        1 MOL      0.062795
      5 H2          0.9550   -2.6460   -5.9150 hc        1 MOL      0.062795
      6 H3         -0.1430   -4.0190   -6.1990 hc        1 MOL      0.062795
      7 N1         -1.7450   -2.2110   -4.1780 n         1 MOL     -0.675798
      8 C3         -2.4000   -2.1630   -2.8980 c3        1 MOL      0.330106
      9 C4         -2.8630   -3.5390   -2.3710 c         1 MOL      0.456299
     10 O2         -3.4260   -4.3530   -3.1140 o         1 MOL     -0.598397
     11 C5         -3.5320   -1.1440   -3.0580 c3        1 MOL     -0.252237
     12 C6         -4.4390   -0.9520   -1.8180 c         1 MOL      0.694394
     13 O3         -5.6730   -0.8500   -2.0820 o         1 MOL     -0.650034
     14 O4         -4.0360   -0.9050   -0.6280 o         1 MOL     -0.650034
     15 H4         -2.2350   -1.8270   -4.9640 hn        1 MOL      0.330806
     16 H5         -1.7860   -1.6430   -2.1660 h1        1 MOL     -0.020460
     17 H6         -4.1960   -1.3890   -3.8880 hc        1 MOL      0.041235
     18 H7         -3.0710   -0.1810   -3.3000 hc        1 MOL      0.041235
     19 N2         -2.5250   -3.8480   -1.1550 n         1 MOL     -0.005739
     20 C7         -2.8360   -5.1300   -0.5070 c3        1 MOL     -0.310069
     21 C8         -3.8410   -5.1490    0.6600 c         1 MOL      0.466530
     22 O5         -4.4330   -6.1900    1.1120 o         1 MOL     -0.580150
     23 C9         -1.4880   -5.7610   -0.1770 c3        1 MOL      0.339984
     24 C10        -0.7460   -5.1560    1.0070 c3        1 MOL     -0.059806
     25 C11        -0.7010   -5.9850   -1.4110 c3        1 MOL     -0.148687
     26 C12        -1.2080   -5.5160    2.4290 c3        1 MOL     -0.248465
     27 H8         -1.8960   -3.2670   -0.6170 hn        1 MOL      0.089155
     28 H9         -3.4030   -5.6710   -1.2650 h1        1 MOL      0.135779
     29 H10        -1.7740   -6.7720    0.0960 hc        1 MOL     -0.060648
     30 H11        -0.8860   -4.0860    0.8600 hc        1 MOL      0.029782
     31 H12         0.2850   -5.4540    0.8410 hc        1 MOL      0.029782
     32 H13         0.1030   -6.6880   -1.1940 hc        1 MOL      0.019143
     33 H14        -1.2920   -6.5470   -2.1400 hc        1 MOL      0.019143
     34 H15        -0.3710   -5.0290   -1.8300 hc        1 MOL      0.019143
     35 H16        -0.5370   -5.0360    3.1450 hc        1 MOL      0.063508
     36 H17        -2.1530   -5.0880    2.7520 hc        1 MOL      0.063508
     37 H18        -1.2150   -6.6080    2.4700 hc        1 MOL      0.063508
     38 N3         -4.2760   -3.9600    1.1650 n         1 MOL     -0.230690
     39 C13        -5.2720   -3.8690    2.2160 c3        1 MOL     -0.004111
     40 C14        -6.5370   -3.1150    1.6940 c         1 MOL      0.428708
     41 O6         -7.5870   -3.2020    2.3410 o         1 MOL     -0.574520
     42 C15        -4.7190   -3.2350    3.5000 c3        1 MOL     -0.068563
     43 C16        -3.9740   -1.9260    3.4420 c         1 MOL      0.828999
     44 O7         -3.7980   -1.3520    2.3760 o         1 MOL     -0.735744
     45 O8         -3.4960   -1.4790    4.5030 o         1 MOL     -0.735744
     46 H19        -3.8990   -3.0890    0.8030 hn        1 MOL      0.149072
     47 H20        -5.7000   -4.8310    2.5210 h1        1 MOL      0.104799
     48 H21        -3.9850   -3.9020    3.9530 hc        1 MOL      0.004999
     49 H22        -5.4750   -3.1580    4.2830 hc        1 MOL      0.004999
     50 N4         -6.4900   -2.4320    0.5950 n         1 MOL     -0.171780
     51 C17        -7.6610   -1.8590   -0.1140 c3        1 MOL     -0.128170
     52 C18        -8.0020   -0.3850    0.2990 c         1 MOL      0.507961
     53 O9         -9.1630   -0.0580    0.4370 o         1 MOL     -0.604662
     54 H23        -5.6080   -2.0540    0.2940 hn        1 MOL      0.095550
     55 H24        -8.6010   -2.4130   -0.0270 h1        1 MOL      0.091884
     56 H25        -7.3420   -1.9490   -1.1460 h1        1 MOL      0.091884
     57 N5         -7.0680    0.4730    0.7270 n         1 MOL     -0.179969
     58 C19        -7.3340    1.8110    1.2110 c3        1 MOL      0.013998
     59 C20        -7.2040    2.8370    0.0770 c         1 MOL      0.314458
     60 O10        -7.4230    4.0360    0.3610 o         1 MOL     -0.533702
     61 C21        -6.3710    2.2080    2.4070 c3        1 MOL     -0.170551
     62 C22        -4.8510    2.0430    2.0570 c         1 MOL      0.781332
     63 O11        -4.4720    1.8710    0.8910 o         1 MOL     -0.722473
     64 O12        -4.0050    2.0040    2.9510 o         1 MOL     -0.722473
     65 H26        -6.1060    0.2990    0.4510 hn        1 MOL      0.113390
     66 H27        -8.3170    1.9970    1.6460 h1        1 MOL      0.116354
     67 H28        -6.5560    1.5540    3.2670 hc        1 MOL      0.049137
     68 H29        -6.6710    3.2020    2.7080 hc        1 MOL      0.049137
     69 N6         -6.8980    2.4480   -1.1500 n         1 MOL     -0.117938
     70 C23        -6.5640    3.3140   -2.2660 c3        1 MOL     -0.203253
     71 C24        -5.1990    3.9670   -2.2180 c         1 MOL      0.623063
     72 O13        -4.9930    4.9280   -2.9840 o         1 MOL     -0.613476
     73 H30        -6.8510    1.4500   -1.3030 hn        1 MOL      0.196501
     74 H31        -7.3070    4.1060   -2.2350 h1        1 MOL      0.082800
     75 H32        -6.5910    2.6520   -3.1330 h1        1 MOL      0.082800
     76 N7         -4.2960    3.4990   -1.3480 n         1 MOL     -0.292989
     77 C25        -2.9490    4.0400   -1.2840 c3        1 MOL     -0.089344
     78 C26        -1.8860    2.9650   -1.3450 c         1 MOL      0.553268
     79 O14        -2.1000    1.8260   -1.0110 o         1 MOL     -0.592284
     80 C27        -2.8060    4.9140   -0.0130 c3        1 MOL      0.203545
     81 C28        -3.4760    6.2920   -0.0710 c3        1 MOL     -0.300860
     82 C29        -3.4140    7.0650    1.2120 c         1 MOL      0.712420
     83 N8         -3.8150    8.3710    1.2410 n         1 MOL     -0.850267
     84 O15        -2.9420    6.5630    2.2350 o         1 MOL     -0.552909
     85 H33        -4.4180    2.6980   -0.7470 hn        1 MOL      0.259524
     86 H34        -2.8390    4.7840   -2.0730 h1        1 MOL      0.050492
     87 H35        -1.7670    5.0150    0.2810 hc        1 MOL      0.000087
     88 H36        -3.2990    4.3600    0.7970 hc        1 MOL      0.000087
     89 H37        -4.5190    6.1550   -0.3630 hc        1 MOL      0.074629
     90 H38        -2.9620    6.7880   -0.8970 hc        1 MOL      0.074629
     91 H39        -4.4240    8.7400    0.5200 hn        1 MOL      0.359118
     92 H40        -3.7470    8.8380    2.1300 hn        1 MOL      0.359118
     93 N9         -0.6520    3.3120   -1.7580 n         1 MOL     -0.464389
     94 C30         0.4460    2.3650   -2.0340 c3        1 MOL      0.012626
     95 C31         1.5900    2.8370   -1.1450 c         1 MOL      0.377042
     96 O16         2.1920    3.9150   -1.3570 o         1 MOL     -0.555853
     97 C32         0.6730    2.3100   -3.5440 c3        1 MOL      0.310119
     98 C33         2.0390    1.6220   -3.8930 c3        1 MOL     -0.419990
     99 C34        -0.3880    1.4610   -4.2590 c3        1 MOL     -0.419990
    100 H41        -0.5750    4.2280   -2.1860 hn        1 MOL      0.266873
    101 H42         0.2300    1.3510   -1.7070 h1        1 MOL      0.104256
    102 H43         0.8180    3.3270   -3.9050 hc        1 MOL     -0.020940
    103 H44         2.1070    1.7560   -4.9700 hc        1 MOL      0.094285
    104 H45         2.9050    2.0890   -3.4170 hc        1 MOL      0.094285
    105 H46         1.9850    0.5490   -3.7150 hc        1 MOL      0.094285
    106 H47        -1.4090    1.6970   -3.9390 hc        1 MOL      0.094285
    107 H48        -0.2800    1.7470   -5.3020 hc        1 MOL      0.094285
    108 H49        -0.2180    0.4160   -4.0220 hc        1 MOL      0.094285
    109 N10         1.8530    2.0940   -0.0980 n         1 MOL     -0.053652
    110 C35         3.0710    2.2950    0.6200 c3        1 MOL     -0.123436
    111 C36         4.3160    1.9800   -0.2270 c         1 MOL      0.365889
    112 O17         4.2220    1.2140   -1.2210 o         1 MOL     -0.308400
    113 C37         3.0550    1.3680    1.8940 c3        1 MOL     -0.197952
    114 C38         3.8110    1.8880    3.0740 c         1 MOL      0.819003
    115 N11         3.0970    2.4180    4.0430 n         1 MOL     -0.908192
    116 O18         5.0470    1.7480    3.1490 o         1 MOL     -0.626637
    117 H50         1.3520    1.2440    0.1160 hn        1 MOL      0.211357
    118 H51         3.1520    3.3040    1.0180 h1        1 MOL      0.057718
    119 H52         3.4410    0.3810    1.6560 hc        1 MOL      0.071529
    120 H53         1.9990    1.2810    2.1600 hc        1 MOL      0.071529
    121 H54         2.1330    2.7080    3.9320 hn        1 MOL      0.410688
    122 H55         3.5960    2.5280    4.9130 hn        1 MOL      0.410688
    123 N12         5.5080    2.3170    0.2120 n         1 MOL     -0.348756
    124 C39         6.7560    1.8030   -0.2830 c3        1 MOL      0.039797
    125 C40         6.8900    0.2520   -0.0800 c         1 MOL      0.739537
    126 O19         7.4250   -0.4720   -0.9260 o         1 MOL     -0.553682
    127 C41         7.8450    2.4380    0.4350 c3        1 MOL     -0.076464
    128 C42         9.2400    2.0280    0.0620 ca        1 MOL      0.035755
    129 C43         9.8560    2.3740   -1.1920 ca        1 MOL     -0.215002
    130 C44        10.0590    1.2170    0.9680 ca        1 MOL     -0.215002
    131 C45        11.1310    1.9110   -1.5370 ca        1 MOL     -0.221754
    132 C46        11.3150    0.7280    0.5730 ca        1 MOL     -0.221754
    133 C47        11.8600    1.0800   -0.6740 ca        1 MOL      0.346618
    134 O20        13.1220    0.5770   -0.9880 oh        1 MOL     -0.560025
    135 H56         5.5820    2.7100    1.1360 hn        1 MOL      0.218202
    136 H57         6.8330    2.0230   -1.3440 h1        1 MOL      0.059645
    137 H58         7.8230    2.2020    1.4900 hc        1 MOL      0.052342
    138 H59         7.7760    3.5220    0.3910 hc        1 MOL      0.052342
    139 H60         9.2390    2.8400   -1.9390 ha        1 MOL      0.151094
    140 H61         9.5700    0.8790    1.8760 ha        1 MOL      0.151094
    141 H62        11.5480    2.1340   -2.5030 ha        1 MOL      0.137229
    142 H63        11.8870    0.0400    1.1800 ha        1 MOL      0.137229
    143 H64        13.6190    0.2630   -0.2350 ho        1 MOL      0.382958
    144 N13         6.3390   -0.2890    1.0180 n         1 MOL     -0.529395
    145 C48         6.3370   -1.6810    1.2860 c3        1 MOL     -0.007303
    146 C49         5.3300   -2.4760    0.3000 c         1 MOL      0.363175
    147 O21         5.5550   -3.6210   -0.0660 o         1 MOL     -0.525529
    148 C50         5.9390   -1.9110    2.7440 c3        1 MOL     -0.009223
    149 C51         6.9760   -1.5180    3.6730 c3        1 MOL     -0.037787
    150 C52         6.4820   -1.6990    5.1240 c         1 MOL      0.660226
    151 O22         6.2120   -2.8630    5.5270 o         1 MOL     -0.728386
    152 O23         6.3350   -0.6590    5.7710 o         1 MOL     -0.728386
    153 H65         5.9830    0.2640    1.7820 hn        1 MOL      0.387771
    154 H66         7.3330   -2.0600    1.0730 h1        1 MOL      0.098796
    155 H67         5.7850   -2.9880    2.8570 hc        1 MOL      0.033896
    156 H68         5.0100   -1.4090    3.0230 hc        1 MOL      0.033896
    157 H69         7.2510   -0.4700    3.5070 hc        1 MOL     -0.039026
    158 H70         7.8990   -2.0970    3.6180 hc        1 MOL     -0.039026
    159 N14         4.3740   -1.8550   -0.4510 n         1 MOL     -0.101243
    160 C53         3.4850   -2.4060   -1.5150 c3        1 MOL     -0.022846
    161 C54         4.0680   -2.1820   -2.9040 c         1 MOL      0.429478
    162 O24         3.7120   -2.8280   -3.8670 o         1 MOL     -0.553803
    163 C55         2.1570   -1.5980   -1.3620 c3        1 MOL      0.030758
    164 C56         1.3940   -2.0540   -0.0280 c3        1 MOL      0.063025
    165 C57         0.1670   -1.2070    0.3280 c         1 MOL      0.639148
    166 O25        -0.9740   -1.5580    0.0530 o         1 MOL     -0.662625
    167 O26         0.3760   -0.1240    0.8890 o         1 MOL     -0.662625
    168 H71         4.4490   -0.8450   -0.4140 hn        1 MOL     -0.024390
    169 H72         3.3030   -3.4760   -1.4040 h1        1 MOL      0.098624
    170 H73         1.5970   -1.6780   -2.2960 hc        1 MOL      0.053101
    171 H74         2.3600   -0.5330   -1.2610 hc        1 MOL      0.053101
    172 H75         2.0450   -2.0540    0.8440 hc        1 MOL     -0.042492
    173 H76         1.0350   -3.0640   -0.2300 hc        1 MOL     -0.042492
    174 N15         4.9310   -1.1610   -3.0710 n         1 MOL     -0.018019
    175 C58         5.6790   -0.8230   -4.3380 c3        1 MOL     -0.211881
    176 H77         4.9710   -0.7170   -5.1590 h1        1 MOL      0.080305
    177 H78         6.2200    0.1130   -4.2020 h1        1 MOL      0.080305
    178 H79         6.3840   -1.6210   -4.5680 h1        1 MOL      0.080305
    179 H80         5.0900   -0.5250   -2.2960 hn        1 MOL     -0.007717
    180 Ca1        -2.4710    0.3020    1.1520 Ca        1 MOL      1.710728
    181 O27        -1.4000    2.7450    1.9090 oh        1 MOL     -0.889697
    182 H81        -0.6060    3.1390    2.2650 ho        1 MOL      0.406108
    183 H82        -2.0770    2.9710    2.5560 ho        1 MOL      0.406108
    184 O28        -1.3300   -0.4840    3.3860 oh        1 MOL     -0.889697
    185 H83        -2.0350   -0.9190    3.8780 ho        1 MOL      0.406108
    186 H84        -0.6710   -0.2670    4.0460 ho        1 MOL      0.406108
@<TRIPOS>BOND
     1    1    2 1   
     2    1    4 1   
     3    1    5 1   
     4    1    6 1   
     5    2    3 2   
     6    2    7 1   
     7    7    8 1   
     8    7   15 1   
     9    8    9 1   
    10    8   11 1   
    11    8   16 1   
    12    9   10 2   
    13    9   19 1   
    14   11   12 1   
    15   11   17 1   
    16   11   18 1   
    17   12   13 1   
    18   12   14 1   
    19   19   20 1   
    20   19   27 1   
    21   20   21 1   
    22   20   23 1   
    23   20   28 1   
    24   21   22 2   
    25   21   38 1   
    26   23   24 1   
    27   23   25 1   
    28   23   29 1   
    29   24   26 1   
    30   24   30 1   
    31   24   31 1   
    32   25   32 1   
    33   25   33 1   
    34   25   34 1   
    35   26   35 1   
    36   26   36 1   
    37   26   37 1   
    38   38   39 1   
    39   38   46 1   
    40   39   40 1   
    41   39   42 1   
    42   39   47 1   
    43   40   41 2   
    44   40   50 1   
    45   42   43 1   
    46   42   48 1   
    47   42   49 1   
    48   43   44 1   
    49   43   45 1   
    50   50   51 1   
    51   50   54 1   
    52   51   52 1   
    53   51   55 1   
    54   51   56 1   
    55   52   53 2   
    56   52   57 1   
    57   57   58 1   
    58   57   65 1   
    59   58   59 1   
    60   58   61 1   
    61   58   66 1   
    62   59   60 2   
    63   59   69 1   
    64   61   62 1   
    65   61   67 1   
    66   61   68 1   
    67   62   63 1   
    68   62   64 1   
    69   69   70 1   
    70   69   73 1   
    71   70   71 1   
    72   70   74 1   
    73   70   75 1   
    74   71   72 2   
    75   71   76 1   
    76   76   77 1   
    77   76   85 1   
    78   77   78 1   
    79   77   80 1   
    80   77   86 1   
    81   78   79 2   
    82   78   93 1   
    83   80   81 1   
    84   80   87 1   
    85   80   88 1   
    86   81   82 1   
    87   81   89 1   
    88   81   90 1   
    89   82   83 1   
    90   82   84 2   
    91   83   91 1   
    92   83   92 1   
    93   93   94 1   
    94   93  100 1   
    95   94   95 1   
    96   94   97 1   
    97   94  101 1   
    98   95   96 2   
    99   95  109 1   
   100   97   98 1   
   101   97   99 1   
   102   97  102 1   
   103   98  103 1   
   104   98  104 1   
   105   98  105 1   
   106   99  106 1   
   107   99  107 1   
   108   99  108 1   
   109  109  110 1   
   110  109  117 1   
   111  110  111 1   
   112  110  113 1   
   113  110  118 1   
   114  111  112 2   
   115  111  123 1   
   116  113  114 1   
   117  113  119 1   
   118  113  120 1   
   119  114  115 1   
   120  114  116 2   
   121  115  121 1   
   122  115  122 1   
   123  123  124 1   
   124  123  135 1   
   125  124  125 1   
   126  124  127 1   
   127  124  136 1   
   128  125  126 2   
   129  125  144 1   
   130  127  128 1   
   131  127  137 1   
   132  127  138 1   
   133  128  129 ar  
   134  128  130 ar  
   135  129  131 ar  
   136  129  139 1   
   137  130  132 ar  
   138  130  140 1   
   139  131  133 ar  
   140  131  141 1   
   141  132  133 ar  
   142  132  142 1   
   143  133  134 1   
   144  134  143 1   
   145  144  145 1   
   146  144  153 1   
   147  145  146 1   
   148  145  148 1   
   149  145  154 1   
   150  146  147 2   
   151  146  159 1   
   152  148  149 1   
   153  148  155 1   
   154  148  156 1   
   155  149  150 1   
   156  149  157 1   
   157  149  158 1   
   158  150  151 1   
   159  150  152 1   
   160  159  160 1   
   161  159  168 1   
   162  160  161 1   
   163  160  163 1   
   164  160  169 1   
   165  161  162 2   
   166  161  174 1   
   167  163  164 1   
   168  163  170 1   
   169  163  171 1   
   170  164  165 1   
   171  164  172 1   
   172  164  173 1   
   173  165  166 1   
   174  165  167 1   
   175  174  175 1   
   176  174  179 1   
   177  175  176 1   
   178  175  177 1   
   179  175  178 1   
   180  181  182 1   
   181  181  183 1   
   182  184  185 1   
   183  184  186 1   
@<TRIPOS>SUBSTRUCTURE
     1 MOL         1 TEMP              0 ****  ****    0 ROOT
