@<TRIPOS>MOLECULE
MOL
  175   173     1     0     0
SMALL
resp


@<TRIPOS>ATOM
      1 C1          0.3330   -4.1690    5.4930 c3        1 MOL     -0.398098
      2 C2          1.0250   -4.2030    4.1790 c         1 MOL      0.802453
      3 O1          0.3720   -4.6060    3.2310 o         1 MOL     -0.591162
      4 H1         -0.7340   -4.0150    5.3360 hc        1 MOL      0.086371
      5 H2          0.4910   -5.1150    6.0110 hc        1 MOL      0.086371
      6 H3          0.7340   -3.3530    6.0950 hc        1 MOL      0.086371
      7 N1          2.2710   -3.7320    4.1420 n         1 MOL     -0.694957
      8 C3          2.7950   -3.3810    2.8300 c3        1 MOL      0.269995
      9 C4          2.9630   -4.5930    1.8540 c         1 MOL      0.471150
     10 O2          3.5500   -5.6020    2.2400 o         1 MOL     -0.580296
     11 C5          4.0770   -2.6460    2.9570 c3        1 MOL     -0.309381
     12 C6          4.5640   -2.2830    1.5530 c         1 MOL      0.703774
     13 O3          3.7420   -1.8770    0.7070 o         1 MOL     -0.671569
     14 O4          5.7610   -2.2890    1.2910 o         1 MOL     -0.671569
     15 H4          2.7610   -3.2940    4.9140 hn        1 MOL      0.343666
     16 H5          2.0120   -2.7900    2.3690 h1        1 MOL      0.000800
     17 H6          4.8110   -3.2260    3.5170 hc        1 MOL      0.056128
     18 H7          3.9240   -1.7330    3.5130 hc        1 MOL      0.056128
     19 N2          2.5170   -4.5010    0.5890 n         1 MOL     -0.230184
     20 C7          2.7600   -5.4520   -0.4800 c3        1 MOL      0.002901
     21 C8          3.6290   -4.9970   -1.6870 c         1 MOL      0.541193
     22 O5          3.7190   -5.7670   -2.6600 o         1 MOL     -0.582539
     23 C9          1.3710   -5.9010   -0.9180 c3        1 MOL     -0.030074
     24 H8          1.8810   -3.7640    0.3390 hn        1 MOL      0.264147
     25 H9          3.0920   -6.3690    0.0140 h1        1 MOL      0.075219
     26 H10         0.5380   -5.6610   -0.2550 hc        1 MOL      0.006113
     27 H11         0.9930   -5.5340   -1.8730 hc        1 MOL      0.006113
     28 H12         1.4300   -6.9700   -1.1370 hc        1 MOL      0.006113
     29 N3          4.3200   -3.8370   -1.7150 n         1 MOL     -0.496623
     30 C10         5.0660   -3.2020   -2.8470 c3        1 MOL      0.217643
     31 C11         6.3020   -2.2870   -2.5890 c         1 MOL      0.331067
     32 O6          7.1310   -2.0020   -3.4930 o         1 MOL     -0.559019
     33 C12         4.0140   -2.3990   -3.6400 c3        1 MOL     -0.399697
     34 C13         3.2770   -1.3810   -2.7560 c         1 MOL      0.828309
     35 O7          3.9170   -0.7520   -1.9210 o         1 MOL     -0.705690
     36 O8          2.0630   -1.2610   -2.9590 o         1 MOL     -0.705690
     37 H13         4.1510   -3.2860   -0.8870 hn        1 MOL      0.246630
     38 H14         5.4820   -3.9500   -3.5240 h1        1 MOL      0.068621
     39 H15         3.1780   -3.0610   -3.8740 hc        1 MOL      0.097789
     40 H16         4.5280   -1.9140   -4.4730 hc        1 MOL      0.097789
     41 N4          6.5020   -1.7900   -1.3670 n         1 MOL     -0.120822
     42 C14         7.6330   -0.9550   -0.9770 c3        1 MOL     -0.270565
     43 C15         7.4890    0.5320   -1.3730 c         1 MOL      0.541902
     44 O9          8.4230    1.3150   -1.1500 o         1 MOL     -0.624804
     45 H17         5.7140   -1.8170   -0.7470 hn        1 MOL      0.138590
     46 H18         8.5040   -1.3720   -1.4780 h1        1 MOL      0.139262
     47 H19         7.7980   -1.1340    0.0920 h1        1 MOL      0.139262
     48 N5          6.3020    0.9900   -1.8350 n         1 MOL     -0.233696
     49 C16         6.0650    2.3860   -2.2160 c3        1 MOL     -0.001699
     50 C17         5.9030    3.4400   -1.1010 c         1 MOL      0.443917
     51 O10         5.5140    4.5760   -1.3880 o         1 MOL     -0.489926
     52 C18         4.8900    2.3280   -3.2090 c3        1 MOL     -0.292069
     53 C19         3.4900    2.3070   -2.4900 c         1 MOL      0.590692
     54 N6          2.4010    2.3240   -3.2200 n         1 MOL     -0.593571
     55 O11         3.3490    2.1600   -1.2760 o         1 MOL     -0.577249
     56 H20         5.5160    0.3650   -1.7920 hn        1 MOL      0.239499
     57 H21         6.9490    2.7340   -2.7610 h1        1 MOL      0.110723
     58 H22         4.9630    1.3980   -3.7690 hc        1 MOL      0.089902
     59 H23         4.8890    3.2440   -3.8120 hc        1 MOL      0.089902
     60 H24         2.4910    2.2790   -4.2250 hn        1 MOL      0.318826
     61 H25         1.5930    1.9030   -2.7920 hn        1 MOL      0.318826
     62 N7          6.1540    3.0180    0.1650 n         1 MOL     -0.299538
     63 C20         6.0710    3.8990    1.3170 c3        1 MOL     -0.078976
     64 C21         4.6780    4.6290    1.4840 c         1 MOL      0.423705
     65 O12         4.6670    5.7150    2.1640 o         1 MOL     -0.577827
     66 H26         6.5000    2.0770    0.3120 hn        1 MOL      0.302481
     67 H27         6.7990    4.7180    1.3350 h1        1 MOL      0.074487
     68 H28         6.2860    3.2660    2.1740 h1        1 MOL      0.074487
     69 N8          3.5810    4.0620    0.9950 n         1 MOL     -0.010071
     70 C22         2.2200    4.5600    1.2280 c3        1 MOL     -0.133721
     71 C23         1.1250    3.4630    1.3070 c         1 MOL      0.529383
     72 O13         1.4090    2.3290    0.9040 o         1 MOL     -0.469087
     73 C24         1.8180    5.5510    0.1320 c3        1 MOL      0.635366
     74 C25         2.5850    6.9080    0.0270 c3        1 MOL     -0.386776
     75 O14         1.8570    4.9900   -1.1140 oh        1 MOL     -0.685846
     76 H29         3.7100    3.1900    0.5210 hn        1 MOL     -0.068252
     77 H30         2.1190    5.0800    2.1700 h1        1 MOL      0.045703
     78 H31         0.8060    5.7590    0.4850 h1        1 MOL     -0.103221
     79 H32         2.4280    4.2130   -1.1040 ho        1 MOL      0.431165
     80 H33         2.3620    7.4400    0.9500 hc        1 MOL      0.078041
     81 H34         3.6670    6.7250    0.0030 hc        1 MOL      0.078041
     82 H35         2.3210    7.5460   -0.8170 hc        1 MOL      0.078041
     83 N9          0.0380    3.7010    1.9700 n         1 MOL     -0.470183
     84 C26        -1.1360    2.7950    2.0240 c3        1 MOL     -0.224566
     85 C27        -1.9980    2.9940    0.8100 c         1 MOL      0.776164
     86 O15        -2.4950    4.0640    0.5900 o         1 MOL     -0.614818
     87 C28        -2.0240    3.0560    3.2670 c3        1 MOL      0.297516
     88 C29        -1.1470    3.1080    4.5580 c3        1 MOL      0.163232
     89 C30        -3.2620    2.1700    3.3830 c3        1 MOL     -0.338936
     90 C31        -1.8910    3.4890    5.8100 c3        1 MOL     -0.195121
     91 H36        -0.0670    4.6210    2.3830 hn        1 MOL      0.308345
     92 H37        -0.7510    1.7750    2.0600 h1        1 MOL      0.099243
     93 H38        -2.3500    4.0920    3.1490 hc        1 MOL     -0.048498
     94 H39        -0.3490    3.8430    4.4650 hc        1 MOL     -0.046764
     95 H40        -0.6790    2.1560    4.7780 hc        1 MOL     -0.046764
     96 H41        -3.9740    2.7170    3.9990 hc        1 MOL      0.065641
     97 H42        -3.6670    1.7450    2.4640 hc        1 MOL      0.065641
     98 H43        -2.8740    1.3400    3.9760 hc        1 MOL      0.065641
     99 H44        -2.2930    4.4950    5.7550 hc        1 MOL      0.036569
    100 H45        -2.6580    2.7210    5.8900 hc        1 MOL      0.036569
    101 H46        -1.3650    3.3680    6.7560 hc        1 MOL      0.036569
    102 N10        -2.1610    1.9240    0.0240 n         1 MOL     -0.277741
    103 C32        -2.9450    1.7400   -1.1860 c3        1 MOL      0.007159
    104 C33        -4.3450    1.2940   -0.9170 c         1 MOL      0.514953
    105 O16        -4.4930    0.5810    0.1360 o         1 MOL     -0.389474
    106 C34        -2.0660    0.7640   -1.9620 c3        1 MOL     -0.285578
    107 C35        -0.6190    1.2220   -2.2850 c         1 MOL      0.781593
    108 O17         0.3610    0.9740   -1.6050 o         1 MOL     -0.692119
    109 O18        -0.3760    1.7760   -3.3910 o         1 MOL     -0.692119
    110 H47        -1.8520    1.0260    0.3680 hn        1 MOL     -0.012313
    111 H48        -2.9750    2.6810   -1.7330 h1        1 MOL      0.081480
    112 H49        -2.5830    0.6270   -2.9100 hc        1 MOL      0.096354
    113 H50        -2.0060   -0.1970   -1.4470 hc        1 MOL      0.096354
    114 N11        -5.3420    1.4040   -1.8490 n         1 MOL     -0.773790
    115 C36        -6.7190    1.0540   -1.5050 c3        1 MOL      0.572961
    116 C37        -6.9710   -0.4100   -1.1240 c         1 MOL      0.215861
    117 O19        -7.7290   -0.6280   -0.1390 o         1 MOL     -0.457847
    118 C38        -7.6930    1.5340   -2.6390 c3        1 MOL     -0.299076
    119 C39        -9.1440    1.4180   -2.2810 ca        1 MOL      0.119130
    120 C40        -9.6770    2.0610   -1.1290 ca        1 MOL     -0.161930
    121 C41       -10.0150    0.7190   -3.1570 ca        1 MOL     -0.161930
    122 C42       -11.0160    1.8790   -0.8390 ca        1 MOL     -0.129892
    123 C43       -11.3770    0.6040   -2.8800 ca        1 MOL     -0.129892
    124 C44       -11.8540    1.0500   -1.6490 ca        1 MOL     -0.064129
    125 H51        -5.1750    1.9450   -2.6930 hn        1 MOL      0.378848
    126 H52        -7.0390    1.6310   -0.6410 h1        1 MOL      0.023915
    127 H53        -7.6400    0.8530   -3.4990 hc        1 MOL      0.073914
    128 H54        -7.4450    2.5130   -3.0630 hc        1 MOL      0.073914
    129 H55        -9.0240    2.6270   -0.4710 ha        1 MOL      0.121469
    130 H56        -9.6630    0.2560   -4.0610 ha        1 MOL      0.121469
    131 H57       -11.4680    2.4970   -0.0920 ha        1 MOL      0.111085
    132 H58       -12.0360    0.2110   -3.6440 ha        1 MOL      0.111085
    133 H59       -12.9090    0.9560   -1.4130 ha        1 MOL      0.085898
    134 N12        -6.2110   -1.4130   -1.7020 n         1 MOL     -0.071950
    135 C45        -6.2390   -2.7840   -1.2260 c3        1 MOL      0.200586
    136 C46        -5.7210   -2.8590    0.2250 c         1 MOL      0.175880
    137 O20        -6.2080   -3.6480    1.0690 o         1 MOL     -0.475157
    138 C47        -5.3330   -3.6040   -2.2790 c3        1 MOL     -0.171226
    139 C48        -5.6630   -2.8110   -3.6060 c3        1 MOL     -0.055390
    140 C49        -5.5530   -1.3720   -3.0010 c3        1 MOL     -0.108549
    141 H60        -7.2380   -3.2290   -1.2650 h1        1 MOL      0.035811
    142 H61        -4.2640   -3.4680   -2.1220 hc        1 MOL      0.084139
    143 H62        -5.7220   -4.6170   -2.3690 hc        1 MOL      0.084139
    144 H63        -4.8980   -2.9000   -4.3690 hc        1 MOL      0.045022
    145 H64        -6.6460   -3.1210   -3.9640 hc        1 MOL      0.045022
    146 H65        -4.4900   -1.1690   -2.8720 h1        1 MOL      0.067827
    147 H66        -6.0630   -0.7130   -3.6860 h1        1 MOL      0.067827
    148 N13        -4.6400   -2.0850    0.5430 n         1 MOL     -0.061054
    149 C50        -3.9090   -2.1210    1.7620 c3        1 MOL     -0.135643
    150 C51        -4.7040   -1.3910    2.8210 c         1 MOL      0.407749
    151 O21        -4.5610   -1.6580    4.0030 o         1 MOL     -0.571666
    152 C52        -2.5080   -1.6430    1.7270 c3        1 MOL     -0.054006
    153 C53        -1.6180   -2.4190    0.7910 c3        1 MOL     -0.149824
    154 C54        -0.2070   -1.7530    0.7260 c         1 MOL      0.762565
    155 O22        -0.0040   -0.6020    1.1880 o         1 MOL     -0.781416
    156 O23         0.7810   -2.2550    0.1350 o         1 MOL     -0.781416
    157 H67        -4.3300   -1.3560   -0.0880 hn        1 MOL      0.123298
    158 H68        -3.8540   -3.1550    2.1140 h1        1 MOL      0.126210
    159 H69        -2.0750   -1.6460    2.7230 hc        1 MOL      0.084744
    160 H70        -2.5820   -0.5850    1.4910 hc        1 MOL      0.084744
    161 H71        -2.0000   -2.5980   -0.2120 hc        1 MOL      0.070780
    162 H72        -1.4610   -3.4100    1.2130 hc        1 MOL      0.070780
    163 N14        -5.5760   -0.4720    2.3800 n         1 MOL      0.120858
    164 C55        -6.6030    0.2020    3.0810 c3        1 MOL     -0.204556
    165 H73        -7.5710   -0.0790    2.6650 h1        1 MOL      0.061284
    166 H74        -6.5660   -0.0750    4.1350 h1        1 MOL      0.061284
    167 H75        -6.4640    1.2790    2.9830 h1        1 MOL      0.061284
    168 H76        -5.5710   -0.2900    1.3840 hn        1 MOL      0.021881
    169 Ca1         2.1380   -0.0730   -0.2080 Ca        1 MOL      1.709710
    170 O24         3.9570    1.0320    1.5130 oh        1 MOL     -0.842674
    171 H77         3.2450    0.8590    2.1400 ho        1 MOL      0.421972
    172 H78         4.7550    0.9620    2.0350 ho        1 MOL      0.421972
    173 O25         1.8270    0.4530    2.9630 oh        1 MOL     -0.842674
    174 H79         0.9340    0.4250    2.6200 ho        1 MOL      0.421972
    175 H80         1.7500    0.1060    3.8550 ho        1 MOL      0.421972
@<TRIPOS>BOND
     1    1    2 1   
     2    1    4 1   
     3    1    5 1   
     4    1    6 1   
     5    2    3 2   
     6    2    7 1   
     7    7    8 1   
     8    7   15 1   
     9    8    9 1   
    10    8   11 1   
    11    8   16 1   
    12    9   10 2   
    13    9   19 1   
    14   11   12 1   
    15   11   17 1   
    16   11   18 1   
    17   12   13 1   
    18   12   14 1   
    19   19   20 1   
    20   19   24 1   
    21   20   21 1   
    22   20   23 1   
    23   20   25 1   
    24   21   22 2   
    25   21   29 1   
    26   23   26 1   
    27   23   27 1   
    28   23   28 1   
    29   29   30 1   
    30   29   37 1   
    31   30   31 1   
    32   30   33 1   
    33   30   38 1   
    34   31   32 2   
    35   31   41 1   
    36   33   34 1   
    37   33   39 1   
    38   33   40 1   
    39   34   35 1   
    40   34   36 1   
    41   41   42 1   
    42   41   45 1   
    43   42   43 1   
    44   42   46 1   
    45   42   47 1   
    46   43   44 2   
    47   43   48 1   
    48   48   49 1   
    49   48   56 1   
    50   49   50 1   
    51   49   52 1   
    52   49   57 1   
    53   50   51 2   
    54   50   62 1   
    55   52   53 1   
    56   52   58 1   
    57   52   59 1   
    58   53   54 1   
    59   53   55 2   
    60   54   60 1   
    61   54   61 1   
    62   62   63 1   
    63   62   66 1   
    64   63   64 1   
    65   63   67 1   
    66   63   68 1   
    67   64   65 2   
    68   64   69 1   
    69   69   70 1   
    70   69   76 1   
    71   70   71 1   
    72   70   73 1   
    73   70   77 1   
    74   71   72 2   
    75   71   83 1   
    76   73   74 1   
    77   73   75 1   
    78   73   78 1   
    79   74   80 1   
    80   74   81 1   
    81   74   82 1   
    82   75   79 1   
    83   83   84 1   
    84   83   91 1   
    85   84   85 1   
    86   84   87 1   
    87   84   92 1   
    88   85   86 2   
    89   85  102 1   
    90   87   88 1   
    91   87   89 1   
    92   87   93 1   
    93   88   90 1   
    94   88   94 1   
    95   88   95 1   
    96   89   96 1   
    97   89   97 1   
    98   89   98 1   
    99   90   99 1   
   100   90  100 1   
   101   90  101 1   
   102  102  103 1   
   103  102  110 1   
   104  103  104 1   
   105  103  106 1   
   106  103  111 1   
   107  104  105 2   
   108  104  114 1   
   109  106  107 1   
   110  106  112 1   
   111  106  113 1   
   112  107  108 1   
   113  107  109 1   
   114  114  115 1   
   115  114  125 1   
   116  115  116 1   
   117  115  118 1   
   118  115  126 1   
   119  116  117 2   
   120  116  134 1   
   121  118  119 1   
   122  118  127 1   
   123  118  128 1   
   124  119  120 ar  
   125  119  121 ar  
   126  120  122 ar  
   127  120  129 1   
   128  121  123 ar  
   129  121  130 1   
   130  122  124 ar  
   131  122  131 1   
   132  123  124 ar  
   133  123  132 1   
   134  124  133 1   
   135  134  135 1   
   136  134  140 1   
   137  135  136 1   
   138  135  138 1   
   139  135  141 1   
   140  136  137 2   
   141  136  148 1   
   142  138  139 1   
   143  138  142 1   
   144  138  143 1   
   145  139  140 1   
   146  139  144 1   
   147  139  145 1   
   148  140  146 1   
   149  140  147 1   
   150  148  149 1   
   151  148  157 1   
   152  149  150 1   
   153  149  152 1   
   154  149  158 1   
   155  150  151 2   
   156  150  163 1   
   157  152  153 1   
   158  152  159 1   
   159  152  160 1   
   160  153  154 1   
   161  153  161 1   
   162  153  162 1   
   163  154  155 1   
   164  154  156 1   
   165  163  164 1   
   166  163  168 1   
   167  164  165 1   
   168  164  166 1   
   169  164  167 1   
   170  170  171 1   
   171  170  172 1   
   172  173  174 1   
   173  173  175 1   
@<TRIPOS>SUBSTRUCTURE
     1 MOL         1 TEMP              0 ****  ****    0 ROOT
