@<TRIPOS>MOLECULE
MOL
  189   185     1     0     0
SMALL
resp


@<TRIPOS>ATOM
      1 C1         -0.6810    1.3530    6.5960 c3        1 MOL     -0.308003
      2 C2         -0.7790    1.5320    5.0700 c         1 MOL      0.754572
      3 O1          0.1720    1.9200    4.4330 o         1 MOL     -0.597170
      4 H1          0.0570    2.0490    6.9960 hc        1 MOL      0.073641
      5 H2         -1.6520    1.5540    7.0500 hc        1 MOL      0.073641
      6 H3         -0.3760    0.3320    6.8240 hc        1 MOL      0.073641
      7 N1         -1.9680    1.1790    4.5400 n         1 MOL     -0.643851
      8 C3         -2.3380    1.2660    3.1740 c3        1 MOL      0.150706
      9 C4         -2.5530    2.7290    2.8250 c         1 MOL      0.572829
     10 O2         -3.3510    3.4240    3.4340 o         1 MOL     -0.578082
     11 C5         -3.5720    0.4460    2.9910 c3        1 MOL     -0.142174
     12 C6         -4.0790    0.2970    1.5730 c         1 MOL      0.901011
     13 O3         -3.3440    0.5850    0.6110 o         1 MOL     -0.808871
     14 O4         -5.1760   -0.2740    1.3310 o         1 MOL     -0.808871
     15 H4         -2.6870    0.8600    5.1740 hn        1 MOL      0.333851
     16 H5         -1.6070    0.8510    2.4960 h1        1 MOL      0.028588
     17 H6         -4.3750    0.8490    3.6100 hc        1 MOL      0.024341
     18 H7         -3.3980   -0.5740    3.3470 hc        1 MOL      0.024341
     19 N2         -1.7210    3.2230    1.9170 n         1 MOL     -0.324864
     20 C7         -1.7120    4.7150    1.5410 c3        1 MOL      0.010682
     21 C8         -2.7930    5.1790    0.6270 c         1 MOL      0.506600
     22 O5         -3.2700    6.2880    0.7580 o         1 MOL     -0.590933
     23 C9         -0.2600    4.9950    1.0090 c3        1 MOL     -0.131127
     24 C10        -0.0980    6.5010    0.6800 c3        1 MOL     -0.337572
     25 C11         1.4440    6.8100    0.7220 c3        1 MOL      0.085920
     26 C12         1.6990    8.2040    0.2210 c3        1 MOL      0.240865
     27 N3          3.1190    8.5270    0.1030 n4        1 MOL     -0.512461
     28 H8         -1.0860    2.5520    1.4910 hn        1 MOL      0.166391
     29 H9         -1.8490    5.3460    2.4100 h1        1 MOL      0.085111
     30 H10        -0.0240    4.3440    0.1690 hc        1 MOL      0.129725
     31 H11         0.3900    4.7170    1.8370 hc        1 MOL      0.129725
     32 H12        -0.5610    7.0050    1.5290 hc        1 MOL      0.128122
     33 H13        -0.5780    6.7350   -0.2640 hc        1 MOL      0.128122
     34 H14         1.8880    6.2320   -0.0870 hc        1 MOL     -0.004744
     35 H15         1.9620    6.5760    1.6520 hc        1 MOL     -0.004744
     36 H16         1.2060    8.9040    0.9030 hx        1 MOL      0.025980
     37 H17         1.1620    8.3150   -0.7090 hx        1 MOL      0.025980
     38 H18         3.2540    9.4600   -0.2690 hn        1 MOL      0.355658
     39 H19         3.5440    8.5660    1.0300 hn        1 MOL      0.355658
     40 H20         3.5710    7.8690   -0.5160 hn        1 MOL      0.355658
     41 N4         -3.1990    4.3310   -0.3110 n         1 MOL     -0.222169
     42 C13        -3.9950    4.7400   -1.5150 c3        1 MOL      0.007426
     43 C14        -5.3340    4.0530   -1.5810 c         1 MOL      0.444092
     44 O6         -6.3280    4.4820   -2.2160 o         1 MOL     -0.535289
     45 C15        -3.1570    4.5730   -2.8500 c3        1 MOL     -0.304516
     46 C16        -2.3450    3.2890   -2.9280 c         1 MOL      0.848319
     47 O7         -1.6220    3.2420   -3.9310 o         1 MOL     -0.733940
     48 O8         -2.3730    2.4170   -2.0560 o         1 MOL     -0.733940
     49 H21        -2.6940    3.4570   -0.3580 hn        1 MOL      0.184672
     50 H22        -4.2100    5.8060   -1.4320 h1        1 MOL      0.078770
     51 H23        -2.4610    5.4160   -2.8150 hc        1 MOL      0.090014
     52 H24        -3.8440    4.7120   -3.6840 hc        1 MOL      0.090014
     53 N5         -5.4170    2.8450   -0.9390 n         1 MOL     -0.062232
     54 C17        -6.6860    2.1900   -0.7030 c3        1 MOL     -0.137093
     55 C18        -6.9420    0.9730   -1.6180 c         1 MOL      0.644487
     56 O9         -7.4950    1.0870   -2.7250 o         1 MOL     -0.534700
     57 H25        -4.7060    2.5600   -0.2850 hn        1 MOL      0.075758
     58 H26        -7.5640    2.8380   -0.7450 h1        1 MOL      0.062551
     59 H27        -6.7000    1.7810    0.3040 h1        1 MOL      0.062551
     60 N6         -6.5470   -0.2160   -1.2260 n         1 MOL     -0.615726
     61 C19        -6.7890   -1.3690   -2.0060 c3        1 MOL      0.017237
     62 C20        -6.8220   -2.6540   -1.1710 c         1 MOL      0.404032
     63 O10        -6.8650   -3.7140   -1.7170 o         1 MOL     -0.512658
     64 C21        -5.8610   -1.4730   -3.2330 c3        1 MOL     -0.213188
     65 C22        -4.4140   -1.2260   -2.8840 c         1 MOL      0.623307
     66 O11        -3.8690   -2.1350   -2.1860 o         1 MOL     -0.639290
     67 O12        -3.7920   -0.1150   -3.1980 o         1 MOL     -0.639290
     68 H28        -6.1630   -0.3660   -0.3090 hn        1 MOL      0.358114
     69 H29        -7.8420   -1.2620   -2.2720 h1        1 MOL      0.105939
     70 H30        -6.2770   -0.7920   -3.9730 hc        1 MOL      0.084615
     71 H31        -5.8200   -2.5020   -3.5930 hc        1 MOL      0.084615
     72 N7         -6.7460   -2.6080    0.1340 n         1 MOL     -0.166489
     73 C23        -6.7950   -3.7780    1.0320 c3        1 MOL     -0.369741
     74 C24        -5.4980   -4.5970    1.1300 c         1 MOL      0.522425
     75 O13        -5.5810   -5.7830    1.4700 o         1 MOL     -0.548846
     76 H32        -6.9040   -1.6960    0.5210 hn        1 MOL      0.250853
     77 H33        -7.4460   -4.4810    0.4990 h1        1 MOL      0.157702
     78 H34        -7.1590   -3.5190    2.0280 h1        1 MOL      0.157702
     79 N8         -4.4600   -4.0030    0.5970 n         1 MOL     -0.077416
     80 C25        -3.1260   -4.6270    0.4410 c3        1 MOL     -0.460949
     81 C26        -1.9550   -3.6010    0.5360 c         1 MOL      0.719539
     82 O14        -2.1640   -2.4170    0.4370 o         1 MOL     -0.608780
     83 C27        -3.0040   -5.3680   -0.8980 c3        1 MOL      0.543281
     84 C28        -3.9320   -6.5230   -1.1300 c3        1 MOL     -0.386574
     85 O15        -3.0090   -4.5490   -2.0240 oh        1 MOL     -0.657089
     86 H35        -4.4770   -3.0020    0.4470 hn        1 MOL      0.198711
     87 H36        -2.8820   -5.2750    1.2760 h1        1 MOL      0.125858
     88 H37        -2.0140   -5.8270   -0.9170 h1        1 MOL     -0.014955
     89 H38        -3.5500   -3.8010   -1.7450 ho        1 MOL      0.432636
     90 H39        -4.9650   -6.2200   -0.9340 hc        1 MOL      0.095455
     91 H40        -3.7500   -6.9870   -2.1010 hc        1 MOL      0.095455
     92 H41        -3.6380   -7.2960   -0.4380 hc        1 MOL      0.095455
     93 N9         -0.7520   -4.0730    0.7460 n         1 MOL     -0.538662
     94 C29         0.4310   -3.3650    1.1140 c3        1 MOL      0.068155
     95 C30         1.4670   -3.7030    0.0600 c         1 MOL      0.506726
     96 O16         1.6840   -4.8700   -0.1330 o         1 MOL     -0.543613
     97 C31         0.8230   -3.6190    2.5490 c3        1 MOL      0.029661
     98 C32        -0.1760   -2.9600    3.5870 c3        1 MOL     -0.074754
     99 C33         2.2850   -3.4450    2.8810 c3        1 MOL     -0.099700
    100 C34         0.0670   -3.4330    5.0470 c3        1 MOL     -0.306463
    101 H42        -0.6470   -5.0660    0.9160 hn        1 MOL      0.288027
    102 H43         0.1730   -2.3020    1.0340 h1        1 MOL     -0.007714
    103 H44         0.6390   -4.6940    2.6010 hc        1 MOL      0.024302
    104 H45        -1.2200   -2.9870    3.2790 hc        1 MOL      0.088928
    105 H46        -0.0430   -1.8880    3.5830 hc        1 MOL      0.088928
    106 H47         2.4910   -2.4210    3.1680 hc        1 MOL      0.017701
    107 H48         2.4820   -4.1330    3.7090 hc        1 MOL      0.017701
    108 H49         3.0310   -3.7790    2.1690 hc        1 MOL      0.017701
    109 H50        -0.7670   -3.1210    5.6880 hc        1 MOL      0.085011
    110 H51         0.1660   -4.5190    5.0720 hc        1 MOL      0.085011
    111 H52         1.0350   -3.0440    5.3650 hc        1 MOL      0.085011
    112 N10         1.9990   -2.6710   -0.6280 n         1 MOL     -0.175828
    113 C35         3.1930   -2.6290   -1.4780 c3        1 MOL     -0.171323
    114 C36         4.4690   -2.6050   -0.6720 c         1 MOL      0.443970
    115 O17         4.4140   -2.2760    0.5060 o         1 MOL     -0.327979
    116 C37         3.1780   -1.3700   -2.4290 c3        1 MOL      0.334744
    117 C38         2.0620   -1.4500   -3.4840 c3        1 MOL     -0.622601
    118 O18         3.0130   -0.1370   -1.7900 oh        1 MOL     -0.555198
    119 H53         1.4900   -1.8000   -0.5980 hn        1 MOL      0.332164
    120 H54         3.2490   -3.4300   -2.2060 h1        1 MOL      0.073585
    121 H55         4.1420   -1.3910   -2.9340 h1        1 MOL      0.018686
    122 H56         2.1010    0.0160   -1.5330 ho        1 MOL      0.355683
    123 H57         1.1580   -1.2650   -2.9040 hc        1 MOL      0.170993
    124 H58         2.2570   -0.5860   -4.1230 hc        1 MOL      0.170993
    125 H59         1.9680   -2.4300   -3.9530 hc        1 MOL      0.170993
    126 N11         5.6730   -2.8520   -1.1970 n         1 MOL     -0.423409
    127 C39         6.9680   -2.5950   -0.4740 c3        1 MOL     -0.151907
    128 C40         7.0600   -1.1140    0.1030 c         1 MOL      0.219503
    129 O19         7.7080   -0.8850    1.1230 o         1 MOL     -0.456466
    130 C41         8.2130   -2.8540   -1.3430 c3        1 MOL      0.315104
    131 C42         8.4880   -4.2550   -1.6450 c3        1 MOL     -0.401938
    132 O20         8.1640   -2.1790   -2.6150 oh        1 MOL     -0.673200
    133 H60         5.7360   -3.1020   -2.1740 hn        1 MOL      0.305091
    134 H61         6.9870   -3.3080    0.3440 h1        1 MOL      0.187168
    135 H62         9.1300   -2.4950   -0.8660 h1        1 MOL      0.056433
    136 H63         9.0390   -1.9500   -2.9410 ho        1 MOL      0.419977
    137 H64         8.2250   -4.8850   -0.7930 hc        1 MOL      0.117505
    138 H65         8.0170   -4.6370   -2.5510 hc        1 MOL      0.117505
    139 H66         9.5290   -4.5140   -1.7900 hc        1 MOL      0.117505
    140 N12         6.4190   -0.1300   -0.5360 n         1 MOL      0.146399
    141 C43         6.5280    1.2830   -0.1440 c3        1 MOL     -0.061616
    142 C44         5.8370    1.4700    1.2260 c         1 MOL      0.306503
    143 O21         6.4530    1.9730    2.2230 o         1 MOL     -0.469163
    144 C45         6.0060    2.2170   -1.2820 c3        1 MOL     -0.163908
    145 C46         6.3120    1.8260   -2.6880 c3        1 MOL     -0.165115
    146 C47         7.8260    1.6950   -2.8590 c3        1 MOL      0.167812
    147 C48         8.3130    1.0770   -4.1690 c3        1 MOL      0.073073
    148 N13         9.4210    1.8100   -4.8600 n4        1 MOL     -0.292057
    149 H67         5.9610   -0.3780   -1.4050 hn        1 MOL      0.116847
    150 H68         7.5550    1.5450    0.1130 h1        1 MOL      0.058745
    151 H69         6.3590    3.2450   -1.1740 hc        1 MOL      0.068585
    152 H70         4.9200    2.2150   -1.2480 hc        1 MOL      0.068585
    153 H71         6.0710    2.7340   -3.2520 hc        1 MOL      0.061078
    154 H72         5.7150    0.9520   -2.9310 hc        1 MOL      0.061078
    155 H73         8.2600    1.1030   -2.0530 hc        1 MOL     -0.022124
    156 H74         8.2870    2.6800   -2.7930 hc        1 MOL     -0.022124
    157 H75         7.4150    1.0710   -4.7890 hx        1 MOL      0.039652
    158 H76         8.5830    0.0690   -3.8660 hx        1 MOL      0.039652
    159 H77         9.2540    2.7780   -4.6290 hn        1 MOL      0.278386
    160 H78        10.3450    1.5550   -4.5290 hn        1 MOL      0.278386
    161 H79         9.4690    1.8050   -5.8640 hn        1 MOL      0.278386
    162 N14         4.6290    0.9470    1.1640 n         1 MOL     -0.289390
    163 C49         3.6980    0.7540    2.3180 c3        1 MOL     -0.076205
    164 C50         4.2110   -0.1090    3.4050 c         1 MOL      0.412981
    165 O22         3.9320    0.1040    4.6040 o         1 MOL     -0.536761
    166 C51         2.3990    0.2170    1.7880 c3        1 MOL      0.277882
    167 C52         1.5520    1.3320    1.1400 c3        1 MOL     -0.350664
    168 C53         0.5030    0.7940    0.2050 c         1 MOL      0.805329
    169 O23         0.6750   -0.2280   -0.4550 o         1 MOL     -0.719715
    170 O24        -0.5170    1.5090    0.2270 o         1 MOL     -0.719715
    171 H80         4.2490    0.6510    0.2790 hn        1 MOL      0.313641
    172 H81         3.5130    1.7700    2.6890 h1        1 MOL      0.101766
    173 H82         1.8670   -0.2190    2.6360 hc        1 MOL     -0.004838
    174 H83         2.7200   -0.6190    1.1660 hc        1 MOL     -0.004838
    175 H84         2.1870    1.9230    0.4780 hc        1 MOL      0.020186
    176 H85         1.1440    1.9280    1.9620 hc        1 MOL      0.020186
    177 N15         5.0080   -1.1160    3.0180 n         1 MOL      0.013056
    178 C54         5.6340   -2.0350    3.9200 c3        1 MOL     -0.311868
    179 H86         6.2580   -1.4840    4.6240 h1        1 MOL      0.106163
    180 H87         4.8700   -2.5850    4.4680 h1        1 MOL      0.106163
    181 H88         6.2520   -2.7340    3.3570 h1        1 MOL      0.106163
    182 H89         5.0340   -1.1870    2.0050 hn        1 MOL      0.070770
    183 Ca1        -1.8790   -0.1330   -1.3230 Ca        1 MOL      1.775061
    184 O25        -0.9930    0.3120   -3.7510 oh        1 MOL     -1.004994
    185 H90        -1.4100    1.1080   -4.0890 ho        1 MOL      0.453314
    186 H91        -0.4780   -0.0220   -4.4830 ho        1 MOL      0.453314
    187 O26        -1.0260   -2.5970   -2.3670 oh        1 MOL     -1.004994
    188 H92        -0.8440   -2.6840   -3.3060 ho        1 MOL      0.453314
    189 H93        -1.6650   -3.2760   -2.1820 ho        1 MOL      0.453314
@<TRIPOS>BOND
     1    1    2 1   
     2    1    4 1   
     3    1    5 1   
     4    1    6 1   
     5    2    3 2   
     6    2    7 1   
     7    7    8 1   
     8    7   15 1   
     9    8    9 1   
    10    8   11 1   
    11    8   16 1   
    12    9   10 2   
    13    9   19 1   
    14   11   12 1   
    15   11   17 1   
    16   11   18 1   
    17   12   13 1   
    18   12   14 1   
    19   19   20 1   
    20   19   28 1   
    21   20   21 1   
    22   20   23 1   
    23   20   29 1   
    24   21   22 2   
    25   21   41 1   
    26   23   24 1   
    27   23   30 1   
    28   23   31 1   
    29   24   25 1   
    30   24   32 1   
    31   24   33 1   
    32   25   26 1   
    33   25   34 1   
    34   25   35 1   
    35   26   27 1   
    36   26   36 1   
    37   26   37 1   
    38   27   38 1   
    39   27   39 1   
    40   27   40 1   
    41   41   42 1   
    42   41   49 1   
    43   42   43 1   
    44   42   45 1   
    45   42   50 1   
    46   43   44 2   
    47   43   53 1   
    48   45   46 1   
    49   45   51 1   
    50   45   52 1   
    51   46   47 1   
    52   46   48 1   
    53   53   54 1   
    54   53   57 1   
    55   54   55 1   
    56   54   58 1   
    57   54   59 1   
    58   55   56 2   
    59   55   60 1   
    60   60   61 1   
    61   60   68 1   
    62   61   62 1   
    63   61   64 1   
    64   61   69 1   
    65   62   63 2   
    66   62   72 1   
    67   64   65 1   
    68   64   70 1   
    69   64   71 1   
    70   65   66 1   
    71   65   67 1   
    72   72   73 1   
    73   72   76 1   
    74   73   74 1   
    75   73   77 1   
    76   73   78 1   
    77   74   75 2   
    78   74   79 1   
    79   79   80 1   
    80   79   86 1   
    81   80   81 1   
    82   80   83 1   
    83   80   87 1   
    84   81   82 2   
    85   81   93 1   
    86   83   84 1   
    87   83   85 1   
    88   83   88 1   
    89   84   90 1   
    90   84   91 1   
    91   84   92 1   
    92   85   89 1   
    93   93   94 1   
    94   93  101 1   
    95   94   95 1   
    96   94   97 1   
    97   94  102 1   
    98   95   96 2   
    99   95  112 1   
   100   97   98 1   
   101   97   99 1   
   102   97  103 1   
   103   98  100 1   
   104   98  104 1   
   105   98  105 1   
   106   99  106 1   
   107   99  107 1   
   108   99  108 1   
   109  100  109 1   
   110  100  110 1   
   111  100  111 1   
   112  112  113 1   
   113  112  119 1   
   114  113  114 1   
   115  113  116 1   
   116  113  120 1   
   117  114  115 2   
   118  114  126 1   
   119  116  117 1   
   120  116  118 1   
   121  116  121 1   
   122  117  123 1   
   123  117  124 1   
   124  117  125 1   
   125  118  122 1   
   126  126  127 1   
   127  126  133 1   
   128  127  128 1   
   129  127  130 1   
   130  127  134 1   
   131  128  129 2   
   132  128  140 1   
   133  130  131 1   
   134  130  132 1   
   135  130  135 1   
   136  131  137 1   
   137  131  138 1   
   138  131  139 1   
   139  132  136 1   
   140  140  141 1   
   141  140  149 1   
   142  141  142 1   
   143  141  144 1   
   144  141  150 1   
   145  142  143 2   
   146  142  162 1   
   147  144  145 1   
   148  144  151 1   
   149  144  152 1   
   150  145  146 1   
   151  145  153 1   
   152  145  154 1   
   153  146  147 1   
   154  146  155 1   
   155  146  156 1   
   156  147  148 1   
   157  147  157 1   
   158  147  158 1   
   159  148  159 1   
   160  148  160 1   
   161  148  161 1   
   162  162  163 1   
   163  162  171 1   
   164  163  164 1   
   165  163  166 1   
   166  163  172 1   
   167  164  165 2   
   168  164  177 1   
   169  166  167 1   
   170  166  173 1   
   171  166  174 1   
   172  167  168 1   
   173  167  175 1   
   174  167  176 1   
   175  168  169 1   
   176  168  170 1   
   177  177  178 1   
   178  177  182 1   
   179  178  179 1   
   180  178  180 1   
   181  178  181 1   
   182  184  185 1   
   183  184  186 1   
   184  187  188 1   
   185  187  189 1   
@<TRIPOS>SUBSTRUCTURE
     1 MOL         1 TEMP              0 ****  ****    0 ROOT
