@<TRIPOS>MOLECULE
MOL
  189   185     1     0     0
SMALL
resp


@<TRIPOS>ATOM
      1 C1          0.1580   -4.0950    6.0270 c3        1 MOL     -0.451683
      2 C2          0.7480   -3.4350    4.7410 c         1 MOL      0.789544
      3 O1          0.9860   -2.2730    4.6620 o         1 MOL     -0.611187
      4 H1          0.9600   -4.5660    6.5940 hc        1 MOL      0.110732
      5 H2         -0.3200   -3.3320    6.6410 hc        1 MOL      0.110732
      6 H3         -0.5780   -4.8470    5.7440 hc        1 MOL      0.110732
      7 N1          0.9880   -4.3350    3.7640 n         1 MOL     -0.621270
      8 C3          1.4680   -4.0040    2.4200 c3        1 MOL      0.306336
      9 C4          1.1700   -5.1170    1.3870 c         1 MOL      0.424171
     10 O2          1.1250   -6.2920    1.7780 o         1 MOL     -0.578351
     11 C5          3.0130   -3.9190    2.4660 c3        1 MOL     -0.379548
     12 C6          3.6010   -3.5770    1.1170 c         1 MOL      0.705342
     13 O3          3.1590   -2.6340    0.4880 o         1 MOL     -0.645213
     14 O4          4.4040   -4.4100    0.7320 o         1 MOL     -0.645213
     15 H4          0.7430   -5.2980    3.9480 hn        1 MOL      0.307438
     16 H5          1.1100   -3.0630    2.0080 h1        1 MOL     -0.151944
     17 H6          3.4220   -4.8800    2.7700 hc        1 MOL      0.081025
     18 H7          3.2770   -3.1730    3.2220 hc        1 MOL      0.081025
     19 N2          0.9790   -4.7760    0.1200 n         1 MOL      0.023569
     20 C7          0.8810   -5.7620   -0.9620 c3        1 MOL     -0.178539
     21 C8          1.9270   -5.4400   -2.0600 c         1 MOL      0.430991
     22 O5          2.1820   -6.2980   -2.9060 o         1 MOL     -0.580942
     23 C9         -0.5230   -5.7490   -1.5540 c3        1 MOL      0.221095
     24 C10        -1.0260   -4.4660   -2.2460 c3        1 MOL     -0.092299
     25 C11        -1.4800   -6.0250   -0.3170 c3        1 MOL     -0.199663
     26 C12        -2.4640   -4.6630   -2.9720 c3        1 MOL     -0.262208
     27 H8          0.8480   -3.7830   -0.0720 hn        1 MOL      0.205567
     28 H9          0.9290   -6.7860   -0.6010 h1        1 MOL      0.104934
     29 H10        -0.6180   -6.5770   -2.2610 hc        1 MOL     -0.010982
     30 H11        -0.3450   -4.3120   -3.0830 hc        1 MOL      0.049313
     31 H12        -1.0250   -3.6310   -1.5450 hc        1 MOL      0.049313
     32 H13        -2.3020   -6.6680   -0.6510 hc        1 MOL      0.029224
     33 H14        -0.9380   -6.6340    0.4130 hc        1 MOL      0.029224
     34 H15        -1.8650   -5.1890    0.2660 hc        1 MOL      0.029224
     35 H16        -2.8240   -3.7000   -3.3430 hc        1 MOL      0.076154
     36 H17        -2.2830   -5.3800   -3.7820 hc        1 MOL      0.076154
     37 H18        -3.1940   -5.0230   -2.2520 hc        1 MOL      0.076154
     38 N3          2.4050   -4.1750   -2.1700 n         1 MOL     -0.055416
     39 C13         3.2840   -3.6700   -3.2260 c3        1 MOL      0.040742
     40 C14         4.7240   -3.3350   -2.9610 c         1 MOL      0.456431
     41 O6          5.5240   -3.1760   -3.8700 o         1 MOL     -0.595771
     42 C15         2.5230   -2.5770   -4.0200 c3        1 MOL     -0.262142
     43 C16         2.2630   -1.2470   -3.2600 c         1 MOL      0.727092
     44 O7          2.8490   -0.9990   -2.1190 o         1 MOL     -0.684463
     45 O8          1.3870   -0.4410   -3.6460 o         1 MOL     -0.684463
     46 H19         2.2040   -3.5930   -1.3650 hn        1 MOL     -0.027867
     47 H20         3.4260   -4.4860   -3.9330 h1        1 MOL      0.077431
     48 H21         1.5500   -2.9260   -4.3750 hc        1 MOL      0.064106
     49 H22         3.2190   -2.2350   -4.7900 hc        1 MOL      0.064106
     50 N4          5.1550   -3.2250   -1.7140 n         1 MOL     -0.218052
     51 C17         6.5570   -2.9110   -1.2380 c3        1 MOL      0.008927
     52 C18         6.8400   -1.3750   -1.3300 c         1 MOL      0.425459
     53 O9          8.0010   -1.0630   -1.1280 o         1 MOL     -0.603051
     54 H23         4.4270   -3.2900   -1.0210 hn        1 MOL      0.084803
     55 H24         7.3700   -3.5120   -1.6530 h1        1 MOL      0.061661
     56 H25         6.5930   -3.1190   -0.1640 h1        1 MOL      0.061661
     57 N5          5.9280   -0.4860   -1.7250 n         1 MOL     -0.045814
     58 C19         6.3790    0.7200   -2.3000 c3        1 MOL     -0.058728
     59 C20         7.0600    1.7400   -1.3700 c         1 MOL      0.478860
     60 O10         7.7550    2.7240   -1.8100 o         1 MOL     -0.570227
     61 C21         5.2200    1.4130   -3.0430 c3        1 MOL     -0.398167
     62 C22         4.0380    1.7650   -2.1420 c         1 MOL      0.872278
     63 O11         4.0020    1.4740   -0.9320 o         1 MOL     -0.728853
     64 O12         3.1460    2.4510   -2.6580 o         1 MOL     -0.728853
     65 H26         4.9870   -0.8300   -1.7830 hn        1 MOL      0.145546
     66 H27         7.1750    0.5050   -3.0150 h1        1 MOL      0.092119
     67 H28         4.8510    0.7250   -3.8080 hc        1 MOL      0.116380
     68 H29         5.5480    2.3300   -3.5410 hc        1 MOL      0.116380
     69 N6          6.7770    1.6360   -0.0330 n         1 MOL     -0.246000
     70 C23         7.2750    2.6400    0.9890 c3        1 MOL     -0.313437
     71 C24         6.1150    3.5340    1.4830 c         1 MOL      0.581592
     72 O13         6.3100    4.2320    2.5090 o         1 MOL     -0.622478
     73 H30         6.0570    0.9780    0.2300 hn        1 MOL      0.196917
     74 H31         8.1340    3.2350    0.6930 h1        1 MOL      0.138107
     75 H32         7.4510    2.1890    1.9740 h1        1 MOL      0.138107
     76 N7          4.9910    3.4780    0.8180 n         1 MOL     -0.257413
     77 C25         3.7790    4.2550    1.2450 c3        1 MOL      0.019133
     78 C26         2.6840    3.3100    1.7030 c         1 MOL      0.535044
     79 O14         2.7910    2.1470    1.5750 o         1 MOL     -0.493338
     80 C27         3.4190    5.3650    0.2110 c3        1 MOL     -0.075970
     81 C28         4.5390    6.4130   -0.0080 c3        1 MOL     -0.135464
     82 C29         4.1620    7.6160   -0.7950 c         1 MOL      0.639227
     83 N8          4.1290    7.6000   -2.1150 n         1 MOL     -0.793092
     84 O15         3.8920    8.6930   -0.2620 o         1 MOL     -0.599361
     85 H33         4.8910    2.9530   -0.0390 hn        1 MOL      0.232571
     86 H34         4.0680    4.7200    2.1820 h1        1 MOL      0.061734
     87 H35         2.5790    5.9640    0.5740 hc        1 MOL      0.052470
     88 H36         3.1790    4.8800   -0.7390 hc        1 MOL      0.052470
     89 H37         5.4740    5.9990   -0.3900 hc        1 MOL      0.052776
     90 H38         4.8740    6.8010    0.9560 hc        1 MOL      0.052776
     91 H39         4.5510    6.7720   -2.5180 hn        1 MOL      0.369821
     92 H40         3.8250    8.4570   -2.5580 hn        1 MOL      0.369821
     93 N9          1.5900    3.8330    2.2770 n         1 MOL     -0.579001
     94 C30         0.3680    3.0470    2.5410 c3        1 MOL      0.184852
     95 C31        -0.7150    3.5100    1.6040 c         1 MOL      0.467757
     96 O16        -0.9410    4.7460    1.4430 o         1 MOL     -0.577576
     97 C32         0.0080    2.7790    3.9870 c3        1 MOL      0.059617
     98 C33        -0.3550    4.0770    4.6900 c3        1 MOL     -0.107325
     99 C34        -1.0080    1.7180    4.2400 c3        1 MOL     -0.107325
    100 H41         1.4510    4.8310    2.3830 hn        1 MOL      0.298526
    101 H42         0.7110    2.0650    2.2240 h1        1 MOL      0.079125
    102 H43         0.9450    2.4440    4.4340 hc        1 MOL      0.019937
    103 H44         0.3130    4.9120    4.4630 hc        1 MOL      0.015153
    104 H45        -1.3790    4.2760    4.3650 hc        1 MOL      0.015153
    105 H46        -0.4240    4.0290    5.7740 hc        1 MOL      0.015153
    106 H47        -1.9730    2.1390    3.9700 hc        1 MOL      0.015153
    107 H48        -0.7190    0.9330    3.5320 hc        1 MOL      0.015153
    108 H49        -0.9320    1.2710    5.2270 hc        1 MOL      0.015153
    109 N10        -1.5250    2.5240    1.0760 n         1 MOL     -0.315545
    110 C35        -2.6580    2.8020    0.2080 c3        1 MOL      0.364818
    111 C36        -3.9130    2.1340    0.7050 c         1 MOL     -0.076413
    112 O17        -3.8460    1.2320    1.5350 o         1 MOL     -0.196227
    113 C37        -2.2880    2.4330   -1.2600 c3        1 MOL     -0.470819
    114 C38        -3.4620    2.4070   -2.1500 c         1 MOL      0.782241
    115 N11        -3.8530    3.4450   -2.7670 n         1 MOL     -0.740327
    116 O18        -4.0960    1.3540   -2.2700 o         1 MOL     -0.589304
    117 H50        -1.1680    1.5820    0.9840 hn        1 MOL      0.201571
    118 H51        -2.8900    3.8650    0.2310 h1        1 MOL     -0.000516
    119 H52        -1.9590    1.3970   -1.2660 hc        1 MOL      0.142018
    120 H53        -1.5060    3.1460   -1.5170 hc        1 MOL      0.142018
    121 H54        -3.6220    4.3540   -2.3880 hn        1 MOL      0.329071
    122 H55        -4.6670    3.3470   -3.3480 hn        1 MOL      0.329071
    123 N12        -5.1260    2.6520    0.3560 n         1 MOL      0.002113
    124 C39        -6.3960    2.1690    0.8890 c3        1 MOL      0.046056
    125 C40        -6.6120    0.6580    0.8020 c         1 MOL      0.410506
    126 O19        -7.3260    0.1370    1.6130 o         1 MOL     -0.567741
    127 C41        -7.6020    2.8930    0.1520 c3        1 MOL     -0.452536
    128 C42        -7.4460    3.1800   -1.3240 ca        1 MOL      0.070260
    129 C43        -7.6000    2.1640   -2.2550 ca        1 MOL     -0.124653
    130 C44        -6.9540    4.4640   -1.7190 ca        1 MOL     -0.124653
    131 C45        -7.4120    2.5460   -3.5870 ca        1 MOL     -0.304329
    132 C46        -6.6620    4.7420   -3.0820 ca        1 MOL     -0.304329
    133 C47        -6.9210    3.7730   -3.9770 ca        1 MOL      0.444573
    134 O20        -6.7210    4.0600   -5.2950 oh        1 MOL     -0.637099
    135 H56        -5.1740    3.5750   -0.0600 hn        1 MOL      0.115509
    136 H57        -6.3190    2.4220    1.9490 h1        1 MOL      0.075122
    137 H58        -7.8470    3.8140    0.6880 hc        1 MOL      0.153769
    138 H59        -8.4370    2.1980    0.2150 hc        1 MOL      0.153769
    139 H60        -7.9300    1.1790   -1.9600 ha        1 MOL      0.119823
    140 H61        -6.7790    5.2420   -0.9930 ha        1 MOL      0.119823
    141 H62        -7.7350    1.8600   -4.3600 ha        1 MOL      0.152614
    142 H63        -6.2970    5.7340   -3.2830 ha        1 MOL      0.152614
    143 H64        -6.9040    3.4120   -5.9740 ho        1 MOL      0.445559
    144 N13        -5.9380   -0.0500   -0.1490 n         1 MOL     -0.028124
    145 C48        -5.9060   -1.5560   -0.2460 c3        1 MOL     -0.257867
    146 C49        -5.2860   -2.1370    1.0320 c         1 MOL      0.718972
    147 O21        -5.6670   -3.2270    1.3960 o         1 MOL     -0.589147
    148 C50        -5.0500   -2.0330   -1.4380 c3        1 MOL      0.074491
    149 C51        -5.7750   -1.9580   -2.7640 c3        1 MOL     -0.212514
    150 C52        -6.9580   -2.8460   -3.0240 c         1 MOL      0.719377
    151 O22        -8.0870   -2.3750   -3.3270 o         1 MOL     -0.741136
    152 O23        -6.7220   -4.0540   -3.1860 o         1 MOL     -0.741136
    153 H65        -5.3040    0.5300   -0.6770 hn        1 MOL      0.290412
    154 H66        -6.9620   -1.8480   -0.2950 h1        1 MOL      0.114366
    155 H67        -4.7490   -3.0710   -1.3520 hc        1 MOL      0.035559
    156 H68        -4.2500   -1.2880   -1.5060 hc        1 MOL      0.035559
    157 H69        -5.0220   -2.2530   -3.4930 hc        1 MOL      0.020899
    158 H70        -5.9980   -0.9020   -2.8940 hc        1 MOL      0.020899
    159 N14        -4.4600   -1.3790    1.7140 n         1 MOL     -0.491404
    160 C53        -3.6410   -1.8210    2.8990 c3        1 MOL     -0.037100
    161 C54        -4.0310   -1.0900    4.1790 c         1 MOL      0.530487
    162 O24        -3.6730   -1.5250    5.2870 o         1 MOL     -0.558913
    163 C55        -2.1390   -1.6010    2.6370 c3        1 MOL     -0.000146
    164 C56        -1.6380   -2.1840    1.2880 c3        1 MOL      0.123301
    165 C57        -0.4630   -1.4000    0.6720 c         1 MOL      0.681903
    166 O25        -0.3840   -0.1300    0.7490 o         1 MOL     -0.663776
    167 O26         0.3370   -1.9410   -0.0570 o         1 MOL     -0.663776
    168 H71        -4.2990   -0.4370    1.3670 hn        1 MOL      0.107878
    169 H72        -3.7980   -2.8740    3.1190 h1        1 MOL      0.081020
    170 H73        -1.6420   -2.0760    3.4790 hc        1 MOL      0.030539
    171 H74        -1.9160   -0.5370    2.6640 hc        1 MOL      0.030539
    172 H75        -2.4220   -2.1970    0.5360 hc        1 MOL     -0.042358
    173 H76        -1.3240   -3.2270    1.4150 hc        1 MOL     -0.042358
    174 N15        -4.6910    0.1000    4.0500 n         1 MOL     -0.284460
    175 C58        -4.8120    0.9370    5.1480 c3        1 MOL     -0.029517
    176 H77        -3.9090    1.5390    5.2470 h1        1 MOL      0.030994
    177 H78        -5.6710    1.5950    5.0120 h1        1 MOL      0.030994
    178 H79        -4.9510    0.3390    6.0490 h1        1 MOL      0.030994
    179 H80        -4.7290    0.5210    3.1370 hn        1 MOL      0.202014
    180 Ca1         2.3670   -0.1930    0.2460 Ca        1 MOL      1.676204
    181 O27         1.5900   -0.4660    2.8130 oh        1 MOL     -0.866061
    182 H81         2.2260   -0.2370    3.4850 ho        1 MOL      0.418250
    183 H82         1.0150   -1.0940    3.2420 ho        1 MOL      0.418250
    184 O28         4.8290   -0.3420    1.6340 oh        1 MOL     -0.866061
    185 H83         4.6390   -0.5780    2.5420 ho        1 MOL      0.418250
    186 H84         5.7770   -0.4670    1.5400 ho        1 MOL      0.418250
    187 O29         0.9440    1.4690   -1.2180 oh        1 MOL     -0.866061
    188 H85         0.6120    0.9690   -1.9630 ho        1 MOL      0.418250
    189 H86         1.6360    2.0220   -1.5890 ho        1 MOL      0.418250
@<TRIPOS>BOND
     1    1    2 1   
     2    1    4 1   
     3    1    5 1   
     4    1    6 1   
     5    2    3 2   
     6    2    7 1   
     7    7    8 1   
     8    7   15 1   
     9    8    9 1   
    10    8   11 1   
    11    8   16 1   
    12    9   10 2   
    13    9   19 1   
    14   11   12 1   
    15   11   17 1   
    16   11   18 1   
    17   12   13 1   
    18   12   14 1   
    19   19   20 1   
    20   19   27 1   
    21   20   21 1   
    22   20   23 1   
    23   20   28 1   
    24   21   22 2   
    25   21   38 1   
    26   23   24 1   
    27   23   25 1   
    28   23   29 1   
    29   24   26 1   
    30   24   30 1   
    31   24   31 1   
    32   25   32 1   
    33   25   33 1   
    34   25   34 1   
    35   26   35 1   
    36   26   36 1   
    37   26   37 1   
    38   38   39 1   
    39   38   46 1   
    40   39   40 1   
    41   39   42 1   
    42   39   47 1   
    43   40   41 2   
    44   40   50 1   
    45   42   43 1   
    46   42   48 1   
    47   42   49 1   
    48   43   44 1   
    49   43   45 1   
    50   50   51 1   
    51   50   54 1   
    52   51   52 1   
    53   51   55 1   
    54   51   56 1   
    55   52   53 2   
    56   52   57 1   
    57   57   58 1   
    58   57   65 1   
    59   58   59 1   
    60   58   61 1   
    61   58   66 1   
    62   59   60 2   
    63   59   69 1   
    64   61   62 1   
    65   61   67 1   
    66   61   68 1   
    67   62   63 1   
    68   62   64 1   
    69   69   70 1   
    70   69   73 1   
    71   70   71 1   
    72   70   74 1   
    73   70   75 1   
    74   71   72 2   
    75   71   76 1   
    76   76   77 1   
    77   76   85 1   
    78   77   78 1   
    79   77   80 1   
    80   77   86 1   
    81   78   79 2   
    82   78   93 1   
    83   80   81 1   
    84   80   87 1   
    85   80   88 1   
    86   81   82 1   
    87   81   89 1   
    88   81   90 1   
    89   82   83 1   
    90   82   84 2   
    91   83   91 1   
    92   83   92 1   
    93   93   94 1   
    94   93  100 1   
    95   94   95 1   
    96   94   97 1   
    97   94  101 1   
    98   95   96 2   
    99   95  109 1   
   100   97   98 1   
   101   97   99 1   
   102   97  102 1   
   103   98  103 1   
   104   98  104 1   
   105   98  105 1   
   106   99  106 1   
   107   99  107 1   
   108   99  108 1   
   109  109  110 1   
   110  109  117 1   
   111  110  111 1   
   112  110  113 1   
   113  110  118 1   
   114  111  112 2   
   115  111  123 1   
   116  113  114 1   
   117  113  119 1   
   118  113  120 1   
   119  114  115 1   
   120  114  116 2   
   121  115  121 1   
   122  115  122 1   
   123  123  124 1   
   124  123  135 1   
   125  124  125 1   
   126  124  127 1   
   127  124  136 1   
   128  125  126 2   
   129  125  144 1   
   130  127  128 1   
   131  127  137 1   
   132  127  138 1   
   133  128  129 ar  
   134  128  130 ar  
   135  129  131 ar  
   136  129  139 1   
   137  130  132 ar  
   138  130  140 1   
   139  131  133 ar  
   140  131  141 1   
   141  132  133 ar  
   142  132  142 1   
   143  133  134 1   
   144  134  143 1   
   145  144  145 1   
   146  144  153 1   
   147  145  146 1   
   148  145  148 1   
   149  145  154 1   
   150  146  147 2   
   151  146  159 1   
   152  148  149 1   
   153  148  155 1   
   154  148  156 1   
   155  149  150 1   
   156  149  157 1   
   157  149  158 1   
   158  150  151 1   
   159  150  152 1   
   160  159  160 1   
   161  159  168 1   
   162  160  161 1   
   163  160  163 1   
   164  160  169 1   
   165  161  162 2   
   166  161  174 1   
   167  163  164 1   
   168  163  170 1   
   169  163  171 1   
   170  164  165 1   
   171  164  172 1   
   172  164  173 1   
   173  165  166 1   
   174  165  167 1   
   175  174  175 1   
   176  174  179 1   
   177  175  176 1   
   178  175  177 1   
   179  175  178 1   
   180  181  182 1   
   181  181  183 1   
   182  184  185 1   
   183  184  186 1   
   184  187  188 1   
   185  187  189 1   
@<TRIPOS>SUBSTRUCTURE
     1 MOL         1 TEMP              0 ****  ****    0 ROOT
