@<TRIPOS>MOLECULE
MOL
  183   181     1     0     0
SMALL
resp


@<TRIPOS>ATOM
      1 C1         -0.5020    0.6540    6.3950 c3        1 MOL     -0.291578
      2 C2         -0.8160    0.9870    4.9630 c         1 MOL      0.850162
      3 O1          0.0540    1.5800    4.2650 o         1 MOL     -0.637564
      4 H1         -0.9840    1.3800    7.0500 hc        1 MOL      0.060578
      5 H2         -0.8730   -0.3450    6.6270 hc        1 MOL      0.060578
      6 H3          0.5770    0.6860    6.5480 hc        1 MOL      0.060578
      7 N1         -2.0730    0.7640    4.5460 n         1 MOL     -0.746446
      8 C3         -2.6090    1.0980    3.2440 c3        1 MOL      0.440582
      9 C4         -2.7920    2.5760    2.9230 c         1 MOL      0.358603
     10 O2         -3.5240    3.2160    3.6490 o         1 MOL     -0.579206
     11 C5         -3.7820    0.1680    3.0690 c3        1 MOL     -0.147631
     12 C6         -4.5330    0.2770    1.6990 c         1 MOL      0.627146
     13 O3         -5.6600   -0.2760    1.6840 o         1 MOL     -0.562074
     14 O4         -4.0220    0.8750    0.7120 o         1 MOL     -0.562074
     15 H4         -2.6540    0.3610    5.2750 hn        1 MOL      0.326663
     16 H5         -1.9360    0.8070    2.4410 h1        1 MOL     -0.042982
     17 H6         -4.5990    0.2320    3.7710 hc        1 MOL      0.014368
     18 H7         -3.3730   -0.8380    3.1710 hc        1 MOL      0.014368
     19 N2         -2.3450    3.0900    1.7800 n         1 MOL     -0.173092
     20 C7         -2.2920    4.4790    1.4080 c3        1 MOL     -0.055206
     21 C8         -3.3560    4.7570    0.3440 c         1 MOL      0.606693
     22 O5         -3.5830    5.9550    0.0730 o         1 MOL     -0.602974
     23 C9         -0.8280    4.9510    1.0530 c3        1 MOL      0.282467
     24 C10         0.1460    4.6040    2.2030 c3        1 MOL     -0.004312
     25 C11        -0.7470    6.3940    0.6590 c3        1 MOL     -0.467057
     26 C12         1.5920    5.0570    1.8210 c3        1 MOL     -0.209729
     27 H8         -1.9060    2.4820    1.1150 hn        1 MOL      0.160532
     28 H9         -2.6270    5.1110    2.2260 h1        1 MOL      0.035093
     29 H10        -0.6780    4.2930    0.1910 hc        1 MOL      0.008040
     30 H11         0.0460    3.5490    2.4360 hc        1 MOL      0.013780
     31 H12        -0.1260    5.1420    3.1040 hc        1 MOL      0.013780
     32 H13         0.2130    6.6050    0.1850 hc        1 MOL      0.103026
     33 H14        -1.4680    6.5760   -0.1300 hc        1 MOL      0.103026
     34 H15        -0.8810    7.0580    1.5060 hc        1 MOL      0.103026
     35 H16         2.2430    4.6430    2.5920 hc        1 MOL      0.043078
     36 H17         2.0000    4.7650    0.8520 hc        1 MOL      0.043078
     37 H18         1.7100    6.1410    1.7940 hc        1 MOL      0.043078
     38 N3         -4.0620    3.8140   -0.2740 n         1 MOL     -0.435900
     39 C13        -5.0080    4.0250   -1.3630 c3        1 MOL      0.032204
     40 C14        -6.2970    3.2590   -1.3040 c         1 MOL      0.474483
     41 O6         -7.2220    3.6020   -2.1020 o         1 MOL     -0.572792
     42 C15        -4.3880    3.8550   -2.7670 c3        1 MOL     -0.150067
     43 C16        -3.5690    2.5790   -2.9480 c         1 MOL      0.813265
     44 O7         -2.7460    2.4310   -3.8390 o         1 MOL     -0.721073
     45 O8         -3.8640    1.5990   -2.2030 o         1 MOL     -0.721073
     46 H19        -3.9090    2.8620    0.0170 hn        1 MOL      0.175794
     47 H20        -5.3620    5.0570   -1.2820 h1        1 MOL      0.075399
     48 H21        -3.7770    4.7220   -3.0220 hc        1 MOL      0.032278
     49 H22        -5.1660    3.7790   -3.5250 hc        1 MOL      0.032278
     50 N4         -6.4240    2.4290   -0.3350 n         1 MOL     -0.183834
     51 C17        -7.7030    1.7870    0.0530 c3        1 MOL     -0.199497
     52 C18        -8.1180    0.6840   -0.8610 c         1 MOL      0.578257
     53 O9         -9.2620    0.6260   -1.4040 o         1 MOL     -0.623327
     54 H23        -5.6040    2.1790    0.2140 hn        1 MOL      0.206242
     55 H24        -8.4890    2.5310    0.0770 h1        1 MOL      0.083657
     56 H25        -7.5330    1.3490    1.0360 h1        1 MOL      0.083657
     57 N5         -7.2550   -0.2820   -0.9730 n         1 MOL     -0.232008
     58 C19        -7.4380   -1.5740   -1.7190 c3        1 MOL      0.235259
     59 C20        -7.3550   -2.7820   -0.7130 c         1 MOL      0.278556
     60 O10        -7.7530   -3.9120   -0.9600 o         1 MOL     -0.542868
     61 C21        -6.4740   -1.7020   -2.9450 c3        1 MOL     -0.412978
     62 C22        -4.9970   -1.6780   -2.5780 c         1 MOL      0.860887
     63 O11        -4.2000   -1.6590   -3.5500 o         1 MOL     -0.732902
     64 O12        -4.6200   -1.7180   -1.3800 o         1 MOL     -0.732902
     65 H26        -6.3790   -0.1680   -0.4880 hn        1 MOL      0.047439
     66 H27        -8.4590   -1.6030   -2.0990 h1        1 MOL      0.037262
     67 H28        -6.5940   -0.8410   -3.6160 hc        1 MOL      0.104438
     68 H29        -6.5840   -2.6910   -3.3700 hc        1 MOL      0.104438
     69 N6         -6.8910   -2.5440    0.5190 n         1 MOL     -0.080915
     70 C23        -6.7610   -3.5120    1.5970 c3        1 MOL     -0.138058
     71 C24        -5.3760   -4.2570    1.5450 c         1 MOL      0.572710
     72 O13        -5.2230   -5.1370    2.3580 o         1 MOL     -0.590460
     73 H30        -6.5740   -1.6010    0.7070 hn        1 MOL      0.075244
     74 H31        -7.5900   -4.2140    1.5260 h1        1 MOL      0.077806
     75 H32        -6.9090   -2.9560    2.5280 h1        1 MOL      0.077806
     76 N7         -4.3660   -3.8390    0.7210 n         1 MOL     -0.271618
     77 C25        -2.9700   -4.3620    0.6960 c3        1 MOL     -0.031245
     78 C26        -1.9130   -3.2970    0.8700 c         1 MOL      0.666975
     79 O14        -2.2280   -2.0530    0.9030 o         1 MOL     -0.656929
     80 C27        -2.7760   -5.3730   -0.4560 c3        1 MOL      0.155653
     81 C28        -2.9430   -4.7710   -1.8480 c3        1 MOL     -0.362807
     82 C29        -1.7600   -3.8370   -2.2150 c         1 MOL      0.655676
     83 N8         -0.7080   -4.4300   -2.6990 n         1 MOL     -0.720733
     84 O15        -1.6910   -2.6650   -2.0080 o         1 MOL     -0.537256
     85 H33        -4.3870   -2.9760    0.2030 hn        1 MOL      0.205607
     86 H34        -2.8480   -4.9670    1.5940 h1        1 MOL      0.039231
     87 H35        -3.4280   -6.2210   -0.2310 hc        1 MOL     -0.033138
     88 H36        -1.7670   -5.7580   -0.3220 hc        1 MOL     -0.033138
     89 H37        -3.7860   -4.0850   -1.9430 hc        1 MOL      0.105405
     90 H38        -3.0880   -5.6380   -2.4840 hc        1 MOL      0.105405
     91 H39        -0.7100   -5.3480   -3.1100 hn        1 MOL      0.321756
     92 H40         0.1440   -3.9130   -2.8450 hn        1 MOL      0.321756
     93 N9         -0.7220   -3.7700    1.1200 n         1 MOL     -0.482686
     94 C30         0.4400   -2.9860    1.5830 c3        1 MOL      0.039414
     95 C31         1.6150   -3.3650    0.7210 c         1 MOL      0.326499
     96 O16         2.2440   -4.3560    1.0130 o         1 MOL     -0.538590
     97 C32         0.7730   -3.1870    3.0610 c3        1 MOL      0.377172
     98 C33         1.8470   -2.1470    3.4380 c3        1 MOL     -0.340735
     99 C34        -0.4620   -3.1470    3.9390 c3        1 MOL     -0.340735
    100 H41        -0.5780   -4.7670    1.1900 hn        1 MOL      0.305156
    101 H42         0.2730   -1.9310    1.3590 h1        1 MOL      0.120097
    102 H43         1.1010   -4.2120    3.2170 hc        1 MOL     -0.066178
    103 H44         1.5700   -1.1050    3.2610 hc        1 MOL      0.061759
    104 H45         2.0190   -2.2490    4.5100 hc        1 MOL      0.061759
    105 H46         2.7740   -2.3440    2.8870 hc        1 MOL      0.061759
    106 H47        -0.9460   -2.1830    3.8020 hc        1 MOL      0.061759
    107 H48        -1.1130   -4.0010    3.7320 hc        1 MOL      0.061759
    108 H49        -0.1540   -3.2010    4.9780 hc        1 MOL      0.061759
    109 N10         1.9640   -2.5660   -0.2770 n         1 MOL     -0.110819
    110 C35         3.1340   -2.5820   -1.1660 c3        1 MOL      0.021440
    111 C36         4.3690   -2.1150   -0.3160 c         1 MOL      0.319158
    112 O17         4.2440   -1.4050    0.6610 o         1 MOL     -0.180198
    113 C37         2.9490   -1.6130   -2.3680 c3        1 MOL     -0.269501
    114 C38         2.0040   -2.0980   -3.5060 c         1 MOL      0.679281
    115 N11         1.6160   -1.2670   -4.4850 n         1 MOL     -0.815227
    116 O18         1.7100   -3.2500   -3.5980 o         1 MOL     -0.549385
    117 H50         1.2760   -1.9060   -0.5950 hn        1 MOL      0.170381
    118 H51         3.2990   -3.6020   -1.4960 h1        1 MOL      0.048212
    119 H52         3.9010   -1.3140   -2.8140 hc        1 MOL      0.093162
    120 H53         2.4970   -0.6740   -2.0630 hc        1 MOL      0.093162
    121 H54         1.7910   -0.2770   -4.3620 hn        1 MOL      0.396964
    122 H55         1.0190   -1.7390   -5.1440 hn        1 MOL      0.396964
    123 N12         5.6260   -2.4890   -0.7850 n         1 MOL     -0.431809
    124 C39         6.9190   -1.9570   -0.3600 c3        1 MOL      0.035240
    125 C40         6.8170   -0.3990   -0.1260 c         1 MOL      0.548614
    126 O19         7.1390    0.0750    0.9590 o         1 MOL     -0.497742
    127 C41         7.9290   -2.2720   -1.4720 c3        1 MOL     -0.156330
    128 C42         9.3260   -1.8180   -1.0700 ca        1 MOL      0.171140
    129 C43        10.0800   -2.6060   -0.2060 ca        1 MOL     -0.307155
    130 C44         9.9320   -0.6770   -1.6850 ca        1 MOL     -0.307155
    131 C45        11.2650   -2.1590    0.3610 ca        1 MOL     -0.112763
    132 C46        11.1900   -0.2530   -1.2190 ca        1 MOL     -0.112763
    133 C47        11.9090   -0.9810   -0.2000 ca        1 MOL      0.196850
    134 O20        13.1250   -0.5160    0.2590 oh        1 MOL     -0.492545
    135 H56         5.6510   -3.0360   -1.6400 hn        1 MOL      0.274678
    136 H57         7.1600   -2.4840    0.5590 h1        1 MOL      0.085610
    137 H58         7.5730   -1.8660   -2.4200 hc        1 MOL      0.056347
    138 H59         7.9190   -3.3480   -1.6580 hc        1 MOL      0.056347
    139 H60         9.6260   -3.4670    0.2710 ha        1 MOL      0.161533
    140 H61         9.2880   -0.0840   -2.3220 ha        1 MOL      0.161533
    141 H62        11.7630   -2.7760    1.0970 ha        1 MOL      0.115422
    142 H63        11.6180    0.6010   -1.7200 ha        1 MOL      0.115422
    143 H64        13.3610    0.3200   -0.1680 ho        1 MOL      0.374429
    144 N13         6.3840    0.4160   -1.1520 n         1 MOL     -0.388119
    145 C48         6.0590    1.8860   -1.1200 c3        1 MOL      0.014435
    146 C49         5.2860    2.2680    0.1200 c         1 MOL      0.332276
    147 O21         5.5900    3.3060    0.7430 o         1 MOL     -0.525427
    148 C50         5.4980    2.3860   -2.3880 c3        1 MOL      0.064789
    149 C51         5.5290    3.8770   -2.5790 c3        1 MOL     -0.337736
    150 C52         4.8410    4.3630   -3.7710 c         1 MOL      0.740465
    151 O22         5.0950    3.9020   -4.9100 o         1 MOL     -0.720040
    152 O23         3.8050    5.0440   -3.7750 o         1 MOL     -0.720040
    153 H65         6.1540   -0.0050   -2.0500 hn        1 MOL      0.247718
    154 H66         7.0000    2.4240   -0.9700 h1        1 MOL      0.080104
    155 H67         4.4440    2.1190   -2.4280 hc        1 MOL     -0.006517
    156 H68         5.9360    1.8790   -3.2500 hc        1 MOL     -0.006517
    157 H69         6.5410    4.2960   -2.5640 hc        1 MOL      0.066568
    158 H70         5.0410    4.3450   -1.7190 hc        1 MOL      0.066568
    159 N14         4.3310    1.4960    0.6100 n         1 MOL     -0.039326
    160 C53         3.4950    1.7150    1.7860 c3        1 MOL      0.022132
    161 C54         4.0670    1.1310    3.0170 c         1 MOL      0.476178
    162 O24         4.0370    1.8340    3.9900 o         1 MOL     -0.565019
    163 C55         2.0410    1.2170    1.5280 c3        1 MOL      0.265448
    164 C56         1.4210    1.7260    0.2550 c3        1 MOL     -0.157191
    165 C57         0.0790    0.9700   -0.0960 c         1 MOL      0.586607
    166 O25        -0.9210    1.6980   -0.2860 o         1 MOL     -0.702473
    167 O26        -0.0090   -0.2570   -0.3240 o         1 MOL     -0.702473
    168 H71         4.1100    0.5760    0.2700 hn        1 MOL     -0.015849
    169 H72         3.3900    2.7850    1.9630 h1        1 MOL      0.063434
    170 H73         1.4000    1.3480    2.3940 hc        1 MOL     -0.055812
    171 H74         2.1810    0.1430    1.4190 hc        1 MOL     -0.055812
    172 H75         2.0710    1.6290   -0.6160 hc        1 MOL      0.073191
    173 H76         1.2460    2.8040    0.2950 hc        1 MOL      0.073191
    174 N15         4.8140    0.0100    3.0120 n         1 MOL      0.005365
    175 C58         5.5440   -0.4790    4.1590 c3        1 MOL     -0.379126
    176 H77         5.0700   -0.1190    5.0720 h1        1 MOL      0.111510
    177 H78         5.5410   -1.5690    4.1540 h1        1 MOL      0.111510
    178 H79         6.5720   -0.1180    4.1180 h1        1 MOL      0.111510
    179 H80         5.0670   -0.3120    2.0890 hn        1 MOL      0.026983
    180 Ca1        -2.4880   -0.3340   -1.2040 Ca        1 MOL      1.693761
    181 O27        -1.1490    0.4410   -3.3920 oh        1 MOL     -0.888906
    182 H81        -0.3570    0.4990   -3.9290 ho        1 MOL      0.412236
    183 H82        -1.5330    1.3160   -3.4190 ho        1 MOL      0.412236
@<TRIPOS>BOND
     1    1    2 1   
     2    1    4 1   
     3    1    5 1   
     4    1    6 1   
     5    2    3 2   
     6    2    7 1   
     7    7    8 1   
     8    7   15 1   
     9    8    9 1   
    10    8   11 1   
    11    8   16 1   
    12    9   10 2   
    13    9   19 1   
    14   11   12 1   
    15   11   17 1   
    16   11   18 1   
    17   12   13 1   
    18   12   14 1   
    19   19   20 1   
    20   19   27 1   
    21   20   21 1   
    22   20   23 1   
    23   20   28 1   
    24   21   22 2   
    25   21   38 1   
    26   23   24 1   
    27   23   25 1   
    28   23   29 1   
    29   24   26 1   
    30   24   30 1   
    31   24   31 1   
    32   25   32 1   
    33   25   33 1   
    34   25   34 1   
    35   26   35 1   
    36   26   36 1   
    37   26   37 1   
    38   38   39 1   
    39   38   46 1   
    40   39   40 1   
    41   39   42 1   
    42   39   47 1   
    43   40   41 2   
    44   40   50 1   
    45   42   43 1   
    46   42   48 1   
    47   42   49 1   
    48   43   44 1   
    49   43   45 1   
    50   50   51 1   
    51   50   54 1   
    52   51   52 1   
    53   51   55 1   
    54   51   56 1   
    55   52   53 2   
    56   52   57 1   
    57   57   58 1   
    58   57   65 1   
    59   58   59 1   
    60   58   61 1   
    61   58   66 1   
    62   59   60 2   
    63   59   69 1   
    64   61   62 1   
    65   61   67 1   
    66   61   68 1   
    67   62   63 1   
    68   62   64 1   
    69   69   70 1   
    70   69   73 1   
    71   70   71 1   
    72   70   74 1   
    73   70   75 1   
    74   71   72 2   
    75   71   76 1   
    76   76   77 1   
    77   76   85 1   
    78   77   78 1   
    79   77   80 1   
    80   77   86 1   
    81   78   79 2   
    82   78   93 1   
    83   80   81 1   
    84   80   87 1   
    85   80   88 1   
    86   81   82 1   
    87   81   89 1   
    88   81   90 1   
    89   82   83 1   
    90   82   84 2   
    91   83   91 1   
    92   83   92 1   
    93   93   94 1   
    94   93  100 1   
    95   94   95 1   
    96   94   97 1   
    97   94  101 1   
    98   95   96 2   
    99   95  109 1   
   100   97   98 1   
   101   97   99 1   
   102   97  102 1   
   103   98  103 1   
   104   98  104 1   
   105   98  105 1   
   106   99  106 1   
   107   99  107 1   
   108   99  108 1   
   109  109  110 1   
   110  109  117 1   
   111  110  111 1   
   112  110  113 1   
   113  110  118 1   
   114  111  112 2   
   115  111  123 1   
   116  113  114 1   
   117  113  119 1   
   118  113  120 1   
   119  114  115 1   
   120  114  116 2   
   121  115  121 1   
   122  115  122 1   
   123  123  124 1   
   124  123  135 1   
   125  124  125 1   
   126  124  127 1   
   127  124  136 1   
   128  125  126 2   
   129  125  144 1   
   130  127  128 1   
   131  127  137 1   
   132  127  138 1   
   133  128  129 ar  
   134  128  130 ar  
   135  129  131 ar  
   136  129  139 1   
   137  130  132 ar  
   138  130  140 1   
   139  131  133 ar  
   140  131  141 1   
   141  132  133 ar  
   142  132  142 1   
   143  133  134 1   
   144  134  143 1   
   145  144  145 1   
   146  144  153 1   
   147  145  146 1   
   148  145  148 1   
   149  145  154 1   
   150  146  147 2   
   151  146  159 1   
   152  148  149 1   
   153  148  155 1   
   154  148  156 1   
   155  149  150 1   
   156  149  157 1   
   157  149  158 1   
   158  150  151 1   
   159  150  152 1   
   160  159  160 1   
   161  159  168 1   
   162  160  161 1   
   163  160  163 1   
   164  160  169 1   
   165  161  162 2   
   166  161  174 1   
   167  163  164 1   
   168  163  170 1   
   169  163  171 1   
   170  164  165 1   
   171  164  172 1   
   172  164  173 1   
   173  165  166 1   
   174  165  167 1   
   175  174  175 1   
   176  174  179 1   
   177  175  176 1   
   178  175  177 1   
   179  175  178 1   
   180  181  182 1   
   181  181  183 1   
@<TRIPOS>SUBSTRUCTURE
     1 MOL         1 TEMP              0 ****  ****    0 ROOT
