@<TRIPOS>MOLECULE
MOL
  182   178     1     0     0
SMALL
resp


@<TRIPOS>ATOM
      1 C1          2.5790    1.7310    5.3450 c3        1 MOL     -0.313460
      2 C2          1.7940    1.9180    4.0860 c         1 MOL      0.768499
      3 O1          2.2850    2.4420    3.1070 o         1 MOL     -0.619911
      4 H1          2.0280    1.0800    6.0230 hc        1 MOL      0.076636
      5 H2          3.5420    1.2780    5.1100 hc        1 MOL      0.076636
      6 H3          2.7390    2.6980    5.8220 hc        1 MOL      0.076636
      7 N1          0.5140    1.6180    4.1200 n         1 MOL     -0.573935
      8 C3         -0.4230    1.8220    2.9560 c3        1 MOL      0.144616
      9 C4         -0.7250    3.2770    2.5780 c         1 MOL      0.451764
     10 O2         -1.3220    4.0730    3.2760 o         1 MOL     -0.521192
     11 C5         -1.7290    1.0020    3.2370 c3        1 MOL     -0.475893
     12 C6         -2.6140    0.9110    1.9860 c         1 MOL      0.486142
     13 O3         -2.3000    1.4100    0.8950 o         1 MOL     -0.549101
     14 O4         -3.7060    0.2640    2.1500 o         1 MOL     -0.549101
     15 H4          0.2270    1.2360    5.0090 hn        1 MOL      0.315964
     16 H5          0.0670    1.3750    2.0780 h1        1 MOL      0.065801
     17 H6         -2.3080    1.5580    3.9690 hc        1 MOL      0.171107
     18 H7         -1.4530   -0.0010    3.5370 hc        1 MOL      0.171107
     19 N2         -0.3650    3.5720    1.2940 n         1 MOL      0.016210
     20 C7         -0.2370    4.9590    0.7290 c3        1 MOL     -0.437830
     21 C8         -1.4790    5.5090    0.0790 c         1 MOL      0.595329
     22 O5         -1.9090    6.5650    0.4110 o         1 MOL     -0.539402
     23 C9          1.0530    4.9030   -0.2190 c3        1 MOL     -0.007190
     24 C10         1.4480    6.3490   -0.6820 c3        1 MOL     -0.650196
     25 C11         2.7840    6.3290   -1.5060 c3        1 MOL     -0.088623
     26 C12         3.3170    7.8120   -1.4870 c3        1 MOL      0.031552
     27 N3          2.3770    8.8000   -2.0780 n4        1 MOL     -0.414289
     28 H8          0.0820    2.7610    0.8790 hn        1 MOL      0.108153
     29 H9          0.0850    5.5970    1.5490 h1        1 MOL      0.176402
     30 H10         0.8380    4.3020   -1.1070 hc        1 MOL      0.164062
     31 H11         1.9590    4.4470    0.1740 hc        1 MOL      0.164062
     32 H12         1.7310    6.7680    0.2800 hc        1 MOL      0.229258
     33 H13         0.6340    6.9200   -1.1120 hc        1 MOL      0.229258
     34 H14         2.4130    6.0490   -2.4890 hc        1 MOL      0.089951
     35 H15         3.5680    5.7230   -1.0500 hc        1 MOL      0.089951
     36 H16         4.2310    7.8100   -2.0790 hx        1 MOL      0.104851
     37 H17         3.5630    8.1140   -0.4620 hx        1 MOL      0.104851
     38 H18         1.9630    8.4430   -2.9310 hn        1 MOL      0.344247
     39 H19         1.6880    9.0270   -1.3690 hn        1 MOL      0.344247
     40 H20         2.8750    9.6430   -2.3040 hn        1 MOL      0.344247
     41 N4         -2.0930    4.7580   -0.8470 n         1 MOL     -0.359665
     42 C13        -3.3970    5.1470   -1.3720 c3        1 MOL     -0.038859
     43 C14        -4.5360    4.7290   -0.3210 c         1 MOL      0.426445
     44 O6         -5.6990    5.0740   -0.3910 o         1 MOL     -0.542274
     45 C15        -3.7270    4.4810   -2.7340 c3        1 MOL     -0.293760
     46 C16        -3.6090    2.9420   -2.7530 c         1 MOL      0.797695
     47 O7         -3.8670    2.3460   -3.7840 o         1 MOL     -0.741690
     48 O8         -3.1380    2.3570   -1.7450 o         1 MOL     -0.741690
     49 H21        -1.6840    3.8700   -1.0750 hn        1 MOL      0.234015
     50 H22        -3.5830    6.2220   -1.4900 h1        1 MOL      0.097448
     51 H23        -3.1070    4.9020   -3.5140 hc        1 MOL      0.096689
     52 H24        -4.7570    4.6760   -3.0520 hc        1 MOL      0.096689
     53 N5         -4.1960    3.9020    0.6380 n         1 MOL     -0.038970
     54 C17        -5.0690    3.3020    1.6820 c3        1 MOL     -0.222026
     55 C18        -6.1040    2.2640    1.1420 c         1 MOL      0.572366
     56 O9         -7.2060    2.0980    1.6850 o         1 MOL     -0.605260
     57 H25        -3.2330    3.5680    0.7230 hn        1 MOL      0.140761
     58 H26        -5.6140    4.0770    2.2360 h1        1 MOL      0.108366
     59 H27        -4.4000    2.7780    2.3680 h1        1 MOL      0.108366
     60 N6         -5.8280    1.6350    0.0890 n         1 MOL     -0.148098
     61 C19        -6.6280    0.6230   -0.5910 c3        1 MOL     -0.059028
     62 C20        -6.7720   -0.6680    0.2070 c         1 MOL      0.318533
     63 O10        -7.5490   -1.5170   -0.1830 o         1 MOL     -0.480809
     64 C21        -6.0660    0.2810   -1.9840 c3        1 MOL     -0.354318
     65 C22        -4.8290   -0.5990   -1.9310 c         1 MOL      0.674826
     66 N7         -4.5740   -1.3830   -2.9170 n         1 MOL     -0.658082
     67 O11        -4.0230   -0.5990   -0.9930 o         1 MOL     -0.503402
     68 H28        -4.8650    1.7780   -0.1890 hn        1 MOL      0.097966
     69 H29        -7.6170    1.0740   -0.6800 h1        1 MOL      0.141062
     70 H30        -5.8580    1.2150   -2.5120 hc        1 MOL      0.142395
     71 H31        -6.8550   -0.2760   -2.4780 hc        1 MOL      0.142395
     72 H32        -5.2640   -1.4890   -3.6510 hn        1 MOL      0.331222
     73 H33        -3.7330   -1.9370   -2.8410 hn        1 MOL      0.331222
     74 N8         -5.9780   -0.9530    1.2950 n         1 MOL     -0.003280
     75 C23        -5.9270   -2.1940    2.0020 c3        1 MOL     -0.367272
     76 C24        -4.9200   -3.2160    1.5870 c         1 MOL      0.612097
     77 O12        -5.0560   -4.3700    1.9430 o         1 MOL     -0.549251
     78 H34        -5.2280   -0.2990    1.5000 hn        1 MOL      0.108640
     79 H35        -6.9270   -2.6440    1.9710 h1        1 MOL      0.134451
     80 H36        -5.6890   -1.8940    3.0220 h1        1 MOL      0.134451
     81 N9         -3.8380   -2.8590    0.8700 n         1 MOL     -0.166588
     82 C25        -2.6290   -3.6500    0.5930 c3        1 MOL      0.096236
     83 C26        -1.3290   -2.8240    0.9560 c         1 MOL      0.350392
     84 O13        -1.2550   -1.6490    0.6050 o         1 MOL     -0.474141
     85 C27        -2.7080   -4.1260   -0.8310 c3        1 MOL      0.032751
     86 C28        -3.7270   -5.2250   -1.0240 ca        1 MOL      0.043336
     87 C29        -5.1460   -4.9270   -1.1780 ca        1 MOL     -0.211114
     88 C30        -3.2660   -6.4900   -1.1780 ca        1 MOL     -0.211114
     89 C31        -6.0410   -6.0070   -1.3300 ca        1 MOL     -0.213610
     90 C32        -4.1530   -7.5390   -1.3800 ca        1 MOL     -0.213610
     91 C33        -5.5890   -7.3050   -1.4580 ca        1 MOL      0.306663
     92 O14        -6.4470   -8.3900   -1.6380 oh        1 MOL     -0.439011
     93 H37        -3.6830   -1.8550    0.7910 hn        1 MOL      0.086471
     94 H38        -2.5620   -4.5440    1.2130 h1        1 MOL      0.012452
     95 H39        -1.6980   -4.5120   -0.9840 hc        1 MOL     -0.027992
     96 H40        -2.9270   -3.2740   -1.4730 hc        1 MOL     -0.027992
     97 H41        -5.4910   -3.9060   -1.2090 ha        1 MOL      0.137144
     98 H42        -2.2060   -6.5880   -0.9930 ha        1 MOL      0.137144
     99 H43        -7.1020   -5.8000   -1.3170 ha        1 MOL      0.143278
    100 H44        -3.7900   -8.5350   -1.5720 ha        1 MOL      0.143278
    101 H45        -5.8940   -9.1460   -1.8070 ho        1 MOL      0.306519
    102 N10        -0.2630   -3.5400    1.3510 n         1 MOL     -0.286413
    103 C34         1.1840   -2.9850    1.5190 c3        1 MOL     -0.088298
    104 C35         2.1120   -3.8020    0.5690 c         1 MOL      0.416526
    105 O15         2.1260   -5.0330    0.5560 o         1 MOL     -0.558156
    106 C36         1.7090   -3.0800    3.0040 c3        1 MOL      0.034186
    107 C37         0.6360   -2.7810    4.1000 c3        1 MOL      0.211931
    108 C38         2.8470   -2.1760    3.1280 c3        1 MOL     -0.093299
    109 C39         1.0890   -3.1590    5.5400 c3        1 MOL     -0.287180
    110 H46        -0.4230   -4.5350    1.4630 hn        1 MOL      0.273414
    111 H47         1.2900   -1.9360    1.2300 h1        1 MOL      0.207136
    112 H48         2.1520   -4.0580    3.2100 hc        1 MOL      0.045690
    113 H49        -0.2340   -3.3920    3.8300 hc        1 MOL     -0.059797
    114 H50         0.3460   -1.7310    4.0420 hc        1 MOL     -0.059797
    115 H51         2.5340   -1.1290    3.0240 hc        1 MOL     -0.004516
    116 H52         3.3360   -2.3630    4.0760 hc        1 MOL     -0.004516
    117 H53         3.6450   -2.2860    2.3920 hc        1 MOL     -0.004516
    118 H54         2.0040   -2.6630    5.8670 hc        1 MOL      0.071039
    119 H55         0.3290   -2.8210    6.2450 hc        1 MOL      0.071039
    120 H56         1.2960   -4.2310    5.5450 hc        1 MOL      0.071039
    121 N11         3.0200   -3.1180   -0.0730 n         1 MOL     -0.073653
    122 C40         4.1110   -3.6180   -0.8750 c3        1 MOL     -0.009848
    123 C41         5.5800   -3.2850   -0.3020 c         1 MOL      0.400006
    124 O16         5.8070   -2.3680    0.4940 o         1 MOL     -0.386747
    125 C42         3.9390   -3.1880   -2.3740 c3        1 MOL     -0.266997
    126 O17         4.2140   -1.7410   -2.5500 oh        1 MOL     -0.477581
    127 H57         2.9800   -2.1030   -0.0800 hn        1 MOL      0.214234
    128 H58         4.0090   -4.7050   -0.8100 h1        1 MOL      0.074949
    129 H59         2.9370   -3.3930   -2.7660 h1        1 MOL      0.145531
    130 H60         4.6680   -3.7130   -2.9860 h1        1 MOL      0.145531
    131 H61         3.3900   -1.3150   -2.7830 ho        1 MOL      0.389019
    132 N12         6.5810   -3.9420   -0.9030 n         1 MOL     -0.339580
    133 C43         7.9660   -3.7210   -0.5800 c3        1 MOL      0.043277
    134 C44         8.3870   -2.2020   -0.8240 c         1 MOL      0.359299
    135 O18         8.9540   -1.5080    0.0080 o         1 MOL     -0.464081
    136 C45         8.8460   -4.6060   -1.4370 c3        1 MOL     -0.105166
    137 H62         6.2970   -4.6460   -1.5760 hn        1 MOL      0.261403
    138 H63         8.1550   -4.0440    0.4450 h1        1 MOL      0.094536
    139 H64         8.7140   -4.2440   -2.4540 hc        1 MOL      0.038748
    140 H65         9.9120   -4.6230   -1.1760 hc        1 MOL      0.038748
    141 H66         8.5110   -5.6460   -1.3700 hc        1 MOL      0.038748
    142 N13         7.9090   -1.6680   -1.9400 n         1 MOL     -0.228891
    143 C46         8.0110   -0.3240   -2.4870 c3        1 MOL     -0.021038
    144 C47         7.2930    0.7160   -1.6170 c         1 MOL      0.453848
    145 O19         7.8120    1.7810   -1.3590 o         1 MOL     -0.521588
    146 C48         7.3580   -0.2180   -3.8990 c3        1 MOL     -0.352588
    147 H67         7.5440   -2.3530   -2.5950 hn        1 MOL      0.276040
    148 H68         9.0630   -0.0390   -2.4650 h1        1 MOL      0.107269
    149 H69         6.2710   -0.1970   -3.8250 hc        1 MOL      0.097802
    150 H70         7.7200    0.7180   -4.3300 hc        1 MOL      0.097802
    151 H71         7.4980   -1.1030   -4.5140 hc        1 MOL      0.097802
    152 N14         6.1160    0.4480   -1.0510 n         1 MOL     -0.041568
    153 C49         5.3940    1.2440   -0.0800 c3        1 MOL     -0.352439
    154 C50         6.1610    1.2770    1.2440 c         1 MOL      0.531936
    155 O20         6.2440    2.3360    1.8130 o         1 MOL     -0.557400
    156 C51         3.9570    0.7280    0.1950 c3        1 MOL      0.521940
    157 C52         2.9210    1.2200   -0.8280 c3        1 MOL      0.001756
    158 C53         1.5130    0.6570   -0.5530 c         1 MOL      0.821859
    159 O21         1.2730   -0.5790   -0.8010 o         1 MOL     -0.825839
    160 O22         0.5980    1.4500   -0.2330 o         1 MOL     -0.825839
    161 H72         5.7050   -0.4290   -1.3310 hn        1 MOL      0.083920
    162 H73         5.3130    2.3060   -0.3360 h1        1 MOL      0.142993
    163 H74         3.5830    1.1000    1.1570 hc        1 MOL     -0.132823
    164 H75         3.8410   -0.3510    0.2650 hc        1 MOL     -0.132823
    165 H76         3.3040    0.8790   -1.7940 hc        1 MOL     -0.105534
    166 H77         2.8830    2.3060   -0.8160 hc        1 MOL     -0.105534
    167 N15         6.6910    0.1790    1.6940 n         1 MOL     -0.143715
    168 C54         7.4810   -0.0070    2.8990 c3        1 MOL     -0.251539
    169 H78         6.9440   -0.6620    3.5870 h1        1 MOL      0.105077
    170 H79         8.4390   -0.4590    2.6410 h1        1 MOL      0.105077
    171 H80         7.6500    0.9590    3.3750 h1        1 MOL      0.105077
    172 H81         6.6370   -0.6740    1.1430 hn        1 MOL      0.151027
    173 Ca1        -1.4310    0.3610   -1.2950 Ca        1 MOL      1.786099
    174 O23        -0.1240    2.3750   -3.0760 oh        1 MOL     -0.882110
    175 H82         0.6010    2.1830   -3.6630 ho        1 MOL      0.421667
    176 H83        -0.2720    3.3150   -3.1850 ho        1 MOL      0.421667
    177 O24        -2.1940    0.2390   -4.0720 oh        1 MOL     -0.882110
    178 H84        -1.6140    0.6020   -4.7540 ho        1 MOL      0.421667
    179 H85        -2.8850    0.8840   -3.9790 ho        1 MOL      0.421667
    180 O25        -1.1740   -1.9880   -2.4920 oh        1 MOL     -0.882110
    181 H86        -1.3690   -2.1110   -3.4220 ho        1 MOL      0.421667
    182 H87        -0.6150   -2.7360   -2.2680 ho        1 MOL      0.421667
@<TRIPOS>BOND
     1    1    2 1   
     2    1    4 1   
     3    1    5 1   
     4    1    6 1   
     5    2    3 2   
     6    2    7 1   
     7    7    8 1   
     8    7   15 1   
     9    8    9 1   
    10    8   11 1   
    11    8   16 1   
    12    9   10 2   
    13    9   19 1   
    14   11   12 1   
    15   11   17 1   
    16   11   18 1   
    17   12   13 1   
    18   12   14 1   
    19   19   20 1   
    20   19   28 1   
    21   20   21 1   
    22   20   23 1   
    23   20   29 1   
    24   21   22 2   
    25   21   41 1   
    26   23   24 1   
    27   23   30 1   
    28   23   31 1   
    29   24   25 1   
    30   24   32 1   
    31   24   33 1   
    32   25   26 1   
    33   25   34 1   
    34   25   35 1   
    35   26   27 1   
    36   26   36 1   
    37   26   37 1   
    38   27   38 1   
    39   27   39 1   
    40   27   40 1   
    41   41   42 1   
    42   41   49 1   
    43   42   43 1   
    44   42   45 1   
    45   42   50 1   
    46   43   44 2   
    47   43   53 1   
    48   45   46 1   
    49   45   51 1   
    50   45   52 1   
    51   46   47 1   
    52   46   48 1   
    53   53   54 1   
    54   53   57 1   
    55   54   55 1   
    56   54   58 1   
    57   54   59 1   
    58   55   56 2   
    59   55   60 1   
    60   60   61 1   
    61   60   68 1   
    62   61   62 1   
    63   61   64 1   
    64   61   69 1   
    65   62   63 2   
    66   62   74 1   
    67   64   65 1   
    68   64   70 1   
    69   64   71 1   
    70   65   66 1   
    71   65   67 2   
    72   66   72 1   
    73   66   73 1   
    74   74   75 1   
    75   74   78 1   
    76   75   76 1   
    77   75   79 1   
    78   75   80 1   
    79   76   77 2   
    80   76   81 1   
    81   81   82 1   
    82   81   93 1   
    83   82   83 1   
    84   82   85 1   
    85   82   94 1   
    86   83   84 2   
    87   83  102 1   
    88   85   86 1   
    89   85   95 1   
    90   85   96 1   
    91   86   87 ar  
    92   86   88 ar  
    93   87   89 ar  
    94   87   97 1   
    95   88   90 ar  
    96   88   98 1   
    97   89   91 ar  
    98   89   99 1   
    99   90   91 ar  
   100   90  100 1   
   101   91   92 1   
   102   92  101 1   
   103  102  103 1   
   104  102  110 1   
   105  103  104 1   
   106  103  106 1   
   107  103  111 1   
   108  104  105 2   
   109  104  121 1   
   110  106  107 1   
   111  106  108 1   
   112  106  112 1   
   113  107  109 1   
   114  107  113 1   
   115  107  114 1   
   116  108  115 1   
   117  108  116 1   
   118  108  117 1   
   119  109  118 1   
   120  109  119 1   
   121  109  120 1   
   122  121  122 1   
   123  121  127 1   
   124  122  123 1   
   125  122  125 1   
   126  122  128 1   
   127  123  124 2   
   128  123  132 1   
   129  125  126 1   
   130  125  129 1   
   131  125  130 1   
   132  126  131 1   
   133  132  133 1   
   134  132  137 1   
   135  133  134 1   
   136  133  136 1   
   137  133  138 1   
   138  134  135 2   
   139  134  142 1   
   140  136  139 1   
   141  136  140 1   
   142  136  141 1   
   143  142  143 1   
   144  142  147 1   
   145  143  144 1   
   146  143  146 1   
   147  143  148 1   
   148  144  145 2   
   149  144  152 1   
   150  146  149 1   
   151  146  150 1   
   152  146  151 1   
   153  152  153 1   
   154  152  161 1   
   155  153  154 1   
   156  153  156 1   
   157  153  162 1   
   158  154  155 2   
   159  154  167 1   
   160  156  157 1   
   161  156  163 1   
   162  156  164 1   
   163  157  158 1   
   164  157  165 1   
   165  157  166 1   
   166  158  159 1   
   167  158  160 1   
   168  167  168 1   
   169  167  172 1   
   170  168  169 1   
   171  168  170 1   
   172  168  171 1   
   173  174  175 1   
   174  174  176 1   
   175  177  178 1   
   176  177  179 1   
   177  180  181 1   
   178  180  182 1   
@<TRIPOS>SUBSTRUCTURE
     1 MOL         1 TEMP              0 ****  ****    0 ROOT
