@<TRIPOS>MOLECULE
MOL
  189   185     1     0     0
SMALL
resp


@<TRIPOS>ATOM
      1 C1          0.5670    1.4890    5.7740 c3        1 MOL     -0.251501
      2 C2         -0.0090    1.8210    4.4010 c         1 MOL      0.654547
      3 O1          0.6450    2.3170    3.5230 o         1 MOL     -0.566133
      4 H1          1.6540    1.5650    5.7400 hc        1 MOL      0.069409
      5 H2          0.1770    2.1900    6.5120 hc        1 MOL      0.069409
      6 H3          0.2830    0.4740    6.0510 hc        1 MOL      0.069409
      7 N1         -1.2650    1.3730    4.1620 n         1 MOL     -0.580598
      8 C3         -1.9000    1.2170    2.8470 c3        1 MOL      0.134109
      9 C4         -2.4020    2.6010    2.2570 c         1 MOL      0.372633
     10 O2         -3.5690    2.9820    2.4440 o         1 MOL     -0.491330
     11 C5         -2.9990    0.1540    3.0660 c3        1 MOL     -0.112115
     12 C6         -3.8870   -0.1780    1.8180 c         1 MOL      0.721468
     13 O3         -5.0340   -0.6910    1.9100 o         1 MOL     -0.689226
     14 O4         -3.4490    0.2320    0.6990 o         1 MOL     -0.689226
     15 H4         -1.7570    0.8390    4.8680 hn        1 MOL      0.300422
     16 H5         -1.0830    0.7990    2.2620 h1        1 MOL      0.063623
     17 H6         -3.6930    0.4220    3.8550 hc        1 MOL      0.029154
     18 H7         -2.4210   -0.7190    3.3800 hc        1 MOL      0.029154
     19 N2         -1.4630    3.2190    1.6120 n         1 MOL     -0.012398
     20 C7         -1.4780    4.6850    1.3040 c3        1 MOL     -0.078168
     21 C8         -2.6280    5.0850    0.3800 c         1 MOL      0.456474
     22 O5         -3.0990    6.2210    0.4080 o         1 MOL     -0.581794
     23 C9         -0.1580    5.0380    0.6220 c3        1 MOL     -0.071645
     24 C10         0.0710    6.5070    0.2200 c3        1 MOL     -0.021595
     25 C11        -0.1490    7.6770    1.2440 c3        1 MOL      0.007483
     26 C12         0.8890    8.7990    1.0670 c3        1 MOL      0.120185
     27 N3          0.9280    9.4090   -0.2590 n4        1 MOL     -0.405684
     28 H8         -0.6110    2.6910    1.4700 hn        1 MOL      0.074477
     29 H9         -1.6520    5.1970    2.2550 h1        1 MOL      0.080625
     30 H10        -0.0260    4.4640   -0.3020 hc        1 MOL      0.083491
     31 H11         0.6440    4.8370    1.3370 hc        1 MOL      0.083491
     32 H12        -0.6110    6.7240   -0.6010 hc        1 MOL     -0.016344
     33 H13         1.0640    6.5670   -0.2110 hc        1 MOL     -0.016344
     34 H14        -0.1520    7.3670    2.2900 hc        1 MOL      0.048174
     35 H15        -1.1170    8.1310    1.0500 hc        1 MOL      0.048174
     36 H16         1.8450    8.3420    1.3210 hx        1 MOL      0.047902
     37 H17         0.8250    9.4890    1.9010 hx        1 MOL      0.047902
     38 H18         1.5890   10.1690   -0.3150 hn        1 MOL      0.335796
     39 H19         1.3170    8.7870   -0.9610 hn        1 MOL      0.335796
     40 H20         0.0380    9.7020   -0.6160 hn        1 MOL      0.335796
     41 N4         -3.1690    4.1030   -0.2970 n         1 MOL     -0.153077
     42 C13        -4.2060    4.2550   -1.3620 c3        1 MOL      0.128090
     43 C14        -5.4900    3.4770   -1.1290 c         1 MOL      0.449438
     44 O6         -6.3810    3.5070   -1.9240 o         1 MOL     -0.527905
     45 C15        -3.6560    4.0210   -2.7800 c3        1 MOL     -0.171896
     46 C16        -2.7400    2.8130   -3.0210 c         1 MOL      0.809148
     47 O7         -3.0260    1.7530   -2.4180 o         1 MOL     -0.718703
     48 O8         -1.8520    2.7430   -3.8700 o         1 MOL     -0.718703
     49 H21        -2.7690    3.1790   -0.2410 hn        1 MOL      0.053051
     50 H22        -4.5890    5.2700   -1.3190 h1        1 MOL      0.057817
     51 H23        -2.9890    4.8680   -2.9510 hc        1 MOL      0.021631
     52 H24        -4.4850    4.1430   -3.4660 hc        1 MOL      0.021631
     53 N5         -5.6380    2.7970    0.0170 n         1 MOL     -0.326224
     54 C17        -6.8590    2.1050    0.5190 c3        1 MOL      0.044598
     55 C18        -7.4440    0.9110   -0.3420 c         1 MOL      0.328468
     56 O9         -8.6650    0.6490   -0.3190 o         1 MOL     -0.543110
     57 H25        -4.8900    2.8500    0.6960 hn        1 MOL      0.169360
     58 H26        -7.7200    2.7120    0.8170 h1        1 MOL      0.065104
     59 H27        -6.5340    1.7750    1.5010 h1        1 MOL      0.065104
     60 N6         -6.5690    0.2070   -1.0230 n         1 MOL      0.044575
     61 C19        -6.9990   -0.7540   -2.0140 c3        1 MOL     -0.034584
     62 C20        -7.3380   -2.0700   -1.3810 c         1 MOL      0.366845
     63 O10        -8.1400   -2.8990   -1.9270 o         1 MOL     -0.540110
     64 C21        -6.0370   -0.7820   -3.2250 c3        1 MOL     -0.200035
     65 C22        -4.6010   -1.2340   -2.9170 c         1 MOL      0.707156
     66 O11        -3.6470   -0.6830   -3.5320 o         1 MOL     -0.680997
     67 O12        -4.2430   -1.9810   -1.9580 o         1 MOL     -0.680997
     68 H28        -5.6300    0.5560   -0.8860 hn        1 MOL      0.071647
     69 H29        -7.9660   -0.4000   -2.3850 h1        1 MOL      0.096612
     70 H30        -5.9700    0.2860   -3.4590 hc        1 MOL      0.083184
     71 H31        -6.4150   -1.3100   -4.0950 hc        1 MOL      0.083184
     72 N7         -6.7700   -2.2980   -0.1690 n         1 MOL     -0.027728
     73 C23        -6.9530   -3.4090    0.7250 c3        1 MOL     -0.242954
     74 C24        -5.7270   -4.3220    0.8010 c         1 MOL      0.672367
     75 O13        -5.8460   -5.4930    1.2330 o         1 MOL     -0.593052
     76 H32        -6.1240   -1.5640    0.1110 hn        1 MOL      0.117841
     77 H33        -7.7550   -4.0440    0.3410 h1        1 MOL      0.108846
     78 H34        -7.1250   -2.9900    1.7080 h1        1 MOL      0.108846
     79 N8         -4.5040   -3.8110    0.3950 n         1 MOL     -0.483896
     80 C25        -3.2330   -4.5890    0.2430 c3        1 MOL     -0.108982
     81 C26        -2.0300   -3.6670    0.4360 c         1 MOL      0.832243
     82 O14        -2.0940   -2.4720    0.1810 o         1 MOL     -0.723028
     83 C27        -3.0430   -5.3300   -1.1260 c3        1 MOL      0.474381
     84 C28        -3.7400   -6.7110   -0.9590 c3        1 MOL     -0.586939
     85 O15        -3.7040   -4.7230   -2.2000 oh        1 MOL     -0.592189
     86 H35        -4.5390   -2.8260    0.1670 hn        1 MOL      0.278364
     87 H36        -3.2070   -5.3400    1.0290 h1        1 MOL      0.084612
     88 H37        -1.9700   -5.4200   -1.2590 h1        1 MOL     -0.060710
     89 H38        -3.7390   -3.7860   -2.0050 ho        1 MOL      0.363805
     90 H39        -3.6940   -7.2820   -1.8820 hc        1 MOL      0.156180
     91 H40        -3.2450   -7.1290   -0.0730 hc        1 MOL      0.156180
     92 H41        -4.7850   -6.4320   -0.8600 hc        1 MOL      0.156180
     93 N9         -0.9380   -4.2930    0.9230 n         1 MOL     -0.685157
     94 C29         0.2860   -3.5270    1.3000 c3        1 MOL      0.094791
     95 C30         1.4780   -3.9480    0.4390 c         1 MOL      0.541294
     96 O16         1.8730   -5.1140    0.3700 o         1 MOL     -0.550594
     97 C31         0.6450   -3.5870    2.8560 c3        1 MOL      0.036118
     98 C32        -0.6050   -3.0100    3.7190 c3        1 MOL      0.077887
     99 C33         1.9580   -2.9590    3.2540 c3        1 MOL     -0.051897
    100 C34        -0.7200   -3.3910    5.1920 c3        1 MOL     -0.209346
    101 H42        -1.1770   -5.2160    1.2570 hn        1 MOL      0.322706
    102 H43         0.1660   -2.4780    1.0530 h1        1 MOL      0.081234
    103 H44         0.8340   -4.6270    3.1390 hc        1 MOL      0.021644
    104 H45        -1.5300   -3.2880    3.2150 hc        1 MOL     -0.005203
    105 H46        -0.5370   -1.9300    3.5950 hc        1 MOL     -0.005203
    106 H47         2.0570   -2.9190    4.3420 hc        1 MOL     -0.016873
    107 H48         2.8540   -3.4280    2.8520 hc        1 MOL     -0.016873
    108 H49         2.0380   -1.9070    3.0080 hc        1 MOL     -0.016873
    109 H50        -0.6910   -4.4740    5.2960 hc        1 MOL      0.053728
    110 H51         0.1610   -2.9970    5.6860 hc        1 MOL      0.053728
    111 H52        -1.5450   -2.9340    5.7360 hc        1 MOL      0.053728
    112 N10         2.0980   -2.9220   -0.1880 n         1 MOL     -0.331180
    113 C35         3.4450   -3.1110   -0.8300 c3        1 MOL      0.074376
    114 C36         4.7410   -3.0440    0.0850 c         1 MOL      0.368729
    115 O17         4.7250   -2.5750    1.2180 o         1 MOL     -0.308768
    116 C37         3.6130   -2.1200   -2.0140 c3        1 MOL      0.067604
    117 C38         2.4740   -2.2150   -3.0430 c3        1 MOL     -0.396391
    118 O18         3.4740   -0.8800   -1.3440 oh        1 MOL     -0.288132
    119 H53         1.6320   -2.0310   -0.2620 hn        1 MOL      0.288198
    120 H54         3.4400   -4.1600   -1.1430 h1        1 MOL      0.037887
    121 H55         4.5520   -2.1740   -2.5620 h1        1 MOL      0.064170
    122 H56         2.9920   -0.2750   -1.9290 ho        1 MOL      0.348440
    123 H57         2.6430   -3.1850   -3.5070 hc        1 MOL      0.111017
    124 H58         1.4800   -2.1310   -2.6120 hc        1 MOL      0.111017
    125 H59         2.5610   -1.4020   -3.7660 hc        1 MOL      0.111017
    126 N11         5.8240   -3.4180   -0.6220 n         1 MOL     -0.227905
    127 C39         7.1710   -2.9790   -0.2090 c3        1 MOL     -0.497622
    128 C40         7.3380   -1.4330   -0.1200 c         1 MOL      0.371050
    129 O19         7.9630   -0.9770    0.8450 o         1 MOL     -0.451896
    130 C41         8.3470   -3.5060   -1.0170 c3        1 MOL      0.549454
    131 C42         8.5350   -4.9980   -0.6630 c3        1 MOL     -0.405452
    132 O20         8.4110   -3.3750   -2.3970 oh        1 MOL     -0.664475
    133 H60         5.7600   -3.6860   -1.6010 hn        1 MOL      0.214344
    134 H61         7.2250   -3.3860    0.7980 h1        1 MOL      0.225876
    135 H62         9.2480   -3.0170   -0.6520 h1        1 MOL      0.064127
    136 H63         7.7170   -3.8790   -2.8260 ho        1 MOL      0.413700
    137 H64         7.7640   -5.5620   -1.1950 hc        1 MOL      0.101807
    138 H65         9.5660   -5.2560   -0.8470 hc        1 MOL      0.101807
    139 H66         8.2710   -5.0650    0.3940 hc        1 MOL      0.101807
    140 N12         6.7770   -0.5690   -1.0080 n         1 MOL     -0.190728
    141 C43         6.8120    0.8650   -0.8840 c3        1 MOL     -0.028045
    142 C44         6.0210    1.4400    0.2280 c         1 MOL      0.357739
    143 O21         6.4240    2.3490    0.9150 o         1 MOL     -0.477856
    144 C45         6.4060    1.5160   -2.2060 c3        1 MOL     -0.216129
    145 C46         6.9210    2.9590   -2.1280 c3        1 MOL      0.071925
    146 C47         8.3810    3.1330   -2.6550 c3        1 MOL     -0.032939
    147 C48         8.4450    2.8750   -4.1710 c3        1 MOL      0.073578
    148 N13         9.7870    2.5120   -4.6180 n4        1 MOL     -0.372342
    149 H67         6.4460   -0.9390   -1.8860 hn        1 MOL      0.179650
    150 H68         7.8360    1.2000   -0.7120 h1        1 MOL      0.083529
    151 H69         5.3310    1.3370   -2.2840 hc        1 MOL      0.043443
    152 H70         6.8480    0.8900   -2.9800 hc        1 MOL      0.043443
    153 H71         6.8090    3.4860   -1.1880 hc        1 MOL      0.027964
    154 H72         6.3590    3.5120   -2.8870 hc        1 MOL      0.027964
    155 H73         9.0770    2.4300   -2.2070 hc        1 MOL      0.039339
    156 H74         8.6540    4.1470   -2.3790 hc        1 MOL      0.039339
    157 H75         8.0140    3.7510   -4.6470 hx        1 MOL      0.066805
    158 H76         7.8090    2.0670   -4.5030 hx        1 MOL      0.066805
    159 H77        10.4990    3.1520   -4.3090 hn        1 MOL      0.296606
    160 H78         9.9760    1.6470   -4.1260 hn        1 MOL      0.296606
    161 H79         9.7830    2.3780   -5.6220 hn        1 MOL      0.296606
    162 N14         4.8570    0.7620    0.5390 n         1 MOL      0.151524
    163 C49         3.9680    1.1220    1.6390 c3        1 MOL     -0.207697
    164 C50         4.6560    0.8100    3.0470 c         1 MOL      0.373691
    165 O22         4.8510    1.7800    3.8560 o         1 MOL     -0.512866
    166 C51         2.5740    0.4280    1.4940 c3        1 MOL      0.289288
    167 C52         1.8270    1.2610    0.5000 c3        1 MOL     -0.090999
    168 C53         0.5970    0.5680   -0.0420 c         1 MOL      0.597033
    169 O23         0.4200   -0.5990   -0.4020 o         1 MOL     -0.706806
    170 O24        -0.4370    1.2480   -0.2130 o         1 MOL     -0.706806
    171 H80         4.6910    0.0230   -0.1310 hn        1 MOL     -0.097173
    172 H81         3.8090    2.2010    1.6250 h1        1 MOL      0.086426
    173 H82         1.9790    0.4070    2.4100 hc        1 MOL     -0.018630
    174 H83         2.6430   -0.5870    1.1050 hc        1 MOL     -0.018630
    175 H84         2.5180    1.5580   -0.2950 hc        1 MOL     -0.019960
    176 H85         1.5990    2.2010    0.9970 hc        1 MOL     -0.019960
    177 N15         5.1550   -0.4220    3.2760 n         1 MOL     -0.094314
    178 C54         6.1060   -0.6120    4.3320 c3        1 MOL     -0.254872
    179 H86         7.0470   -0.9670    3.9120 h1        1 MOL      0.097322
    180 H87         6.2720    0.3340    4.8470 h1        1 MOL      0.097322
    181 H88         5.7240   -1.3480    5.0390 h1        1 MOL      0.097322
    182 H89         5.0250   -1.1990    2.6430 hn        1 MOL      0.163070
    183 Ca1        -2.0370   -0.4510   -1.4440 Ca        1 MOL      1.817821
    184 O25        -0.7020    0.2760   -3.8950 oh        1 MOL     -0.880711
    185 H90        -0.1540    0.0990   -4.6670 ho        1 MOL      0.404223
    186 H91        -1.1470    1.0870   -4.1030 ho        1 MOL      0.404223
    187 O26        -0.9200   -2.5230   -2.6250 oh        1 MOL     -0.880711
    188 H92        -1.3450   -3.2100   -3.1370 ho        1 MOL      0.404223
    189 H93        -0.0850   -2.3710   -3.0780 ho        1 MOL      0.404223
@<TRIPOS>BOND
     1    1    2 1   
     2    1    4 1   
     3    1    5 1   
     4    1    6 1   
     5    2    3 2   
     6    2    7 1   
     7    7    8 1   
     8    7   15 1   
     9    8    9 1   
    10    8   11 1   
    11    8   16 1   
    12    9   10 2   
    13    9   19 1   
    14   11   12 1   
    15   11   17 1   
    16   11   18 1   
    17   12   13 1   
    18   12   14 1   
    19   19   20 1   
    20   19   28 1   
    21   20   21 1   
    22   20   23 1   
    23   20   29 1   
    24   21   22 2   
    25   21   41 1   
    26   23   24 1   
    27   23   30 1   
    28   23   31 1   
    29   24   25 1   
    30   24   32 1   
    31   24   33 1   
    32   25   26 1   
    33   25   34 1   
    34   25   35 1   
    35   26   27 1   
    36   26   36 1   
    37   26   37 1   
    38   27   38 1   
    39   27   39 1   
    40   27   40 1   
    41   41   42 1   
    42   41   49 1   
    43   42   43 1   
    44   42   45 1   
    45   42   50 1   
    46   43   44 2   
    47   43   53 1   
    48   45   46 1   
    49   45   51 1   
    50   45   52 1   
    51   46   47 1   
    52   46   48 1   
    53   53   54 1   
    54   53   57 1   
    55   54   55 1   
    56   54   58 1   
    57   54   59 1   
    58   55   56 2   
    59   55   60 1   
    60   60   61 1   
    61   60   68 1   
    62   61   62 1   
    63   61   64 1   
    64   61   69 1   
    65   62   63 2   
    66   62   72 1   
    67   64   65 1   
    68   64   70 1   
    69   64   71 1   
    70   65   66 1   
    71   65   67 1   
    72   72   73 1   
    73   72   76 1   
    74   73   74 1   
    75   73   77 1   
    76   73   78 1   
    77   74   75 2   
    78   74   79 1   
    79   79   80 1   
    80   79   86 1   
    81   80   81 1   
    82   80   83 1   
    83   80   87 1   
    84   81   82 2   
    85   81   93 1   
    86   83   84 1   
    87   83   85 1   
    88   83   88 1   
    89   84   90 1   
    90   84   91 1   
    91   84   92 1   
    92   85   89 1   
    93   93   94 1   
    94   93  101 1   
    95   94   95 1   
    96   94   97 1   
    97   94  102 1   
    98   95   96 2   
    99   95  112 1   
   100   97   98 1   
   101   97   99 1   
   102   97  103 1   
   103   98  100 1   
   104   98  104 1   
   105   98  105 1   
   106   99  106 1   
   107   99  107 1   
   108   99  108 1   
   109  100  109 1   
   110  100  110 1   
   111  100  111 1   
   112  112  113 1   
   113  112  119 1   
   114  113  114 1   
   115  113  116 1   
   116  113  120 1   
   117  114  115 2   
   118  114  126 1   
   119  116  117 1   
   120  116  118 1   
   121  116  121 1   
   122  117  123 1   
   123  117  124 1   
   124  117  125 1   
   125  118  122 1   
   126  126  127 1   
   127  126  133 1   
   128  127  128 1   
   129  127  130 1   
   130  127  134 1   
   131  128  129 2   
   132  128  140 1   
   133  130  131 1   
   134  130  132 1   
   135  130  135 1   
   136  131  137 1   
   137  131  138 1   
   138  131  139 1   
   139  132  136 1   
   140  140  141 1   
   141  140  149 1   
   142  141  142 1   
   143  141  144 1   
   144  141  150 1   
   145  142  143 2   
   146  142  162 1   
   147  144  145 1   
   148  144  151 1   
   149  144  152 1   
   150  145  146 1   
   151  145  153 1   
   152  145  154 1   
   153  146  147 1   
   154  146  155 1   
   155  146  156 1   
   156  147  148 1   
   157  147  157 1   
   158  147  158 1   
   159  148  159 1   
   160  148  160 1   
   161  148  161 1   
   162  162  163 1   
   163  162  171 1   
   164  163  164 1   
   165  163  166 1   
   166  163  172 1   
   167  164  165 2   
   168  164  177 1   
   169  166  167 1   
   170  166  173 1   
   171  166  174 1   
   172  167  168 1   
   173  167  175 1   
   174  167  176 1   
   175  168  169 1   
   176  168  170 1   
   177  177  178 1   
   178  177  182 1   
   179  178  179 1   
   180  178  180 1   
   181  178  181 1   
   182  184  185 1   
   183  184  186 1   
   184  187  188 1   
   185  187  189 1   
@<TRIPOS>SUBSTRUCTURE
     1 MOL         1 TEMP              0 ****  ****    0 ROOT
