@<TRIPOS>MOLECULE
MOL
  189   185     1     0     0
SMALL
resp


@<TRIPOS>ATOM
      1 C1          0.4910    2.3540    5.4960 c3        1 MOL     -0.440492
      2 C2         -0.0570    2.1070    4.0860 c         1 MOL      0.812046
      3 O1          0.6640    2.4960    3.1640 o         1 MOL     -0.640688
      4 H1         -0.2110    1.9630    6.2320 hc        1 MOL      0.110770
      5 H2          1.4510    1.8500    5.6070 hc        1 MOL      0.110770
      6 H3          0.6220    3.4250    5.6540 hc        1 MOL      0.110770
      7 N1         -1.3310    1.7240    3.9100 n         1 MOL     -0.784057
      8 C3         -1.9070    1.5750    2.5670 c3        1 MOL      0.105954
      9 C4         -2.2290    3.0550    2.0540 c         1 MOL      0.680293
     10 O2         -3.0110    3.7930    2.6830 o         1 MOL     -0.668381
     11 C5         -2.9800    0.5530    2.6370 c3        1 MOL     -0.103665
     12 C6         -3.7150    0.2640    1.3300 c         1 MOL      0.610521
     13 O3         -4.8680   -0.2460    1.3320 o         1 MOL     -0.647716
     14 O4         -3.0630    0.6210    0.3260 o         1 MOL     -0.647716
     15 H4         -1.9110    1.3540    4.6500 hn        1 MOL      0.373378
     16 H5         -1.0970    1.0960    2.0240 h1        1 MOL      0.096761
     17 H6         -3.7900    0.8180    3.3180 hc        1 MOL      0.024886
     18 H7         -2.5760   -0.3740    3.0350 hc        1 MOL      0.024886
     19 N2         -1.6370    3.4710    0.9090 n         1 MOL     -0.301461
     20 C7         -1.7380    4.8940    0.3770 c3        1 MOL     -0.006482
     21 C8         -2.4970    5.0240   -0.9400 c         1 MOL      0.449239
     22 O5         -2.9040    6.1270   -1.3340 o         1 MOL     -0.585397
     23 C9         -0.3810    5.5880    0.3120 c3        1 MOL     -0.128367
     24 C10         0.1970    5.8620    1.6890 c3        1 MOL      0.195262
     25 C11        -0.4160    6.9940    2.5450 c3        1 MOL     -0.191498
     26 C12        -1.6550    6.4940    3.3460 c3        1 MOL      0.103936
     27 N3         -2.0250    7.5330    4.3130 n4        1 MOL     -0.497377
     28 H8         -1.0510    2.7990    0.4400 hn        1 MOL      0.299040
     29 H9         -2.3840    5.4850    1.0250 h1        1 MOL      0.065257
     30 H10        -0.4320    6.5170   -0.2590 hc        1 MOL      0.037761
     31 H11         0.3360    4.9380   -0.2060 hc        1 MOL      0.037761
     32 H12         1.2440    6.1120    1.5380 hc        1 MOL     -0.006378
     33 H13         0.1330    4.9520    2.2800 hc        1 MOL     -0.006378
     34 H14        -0.6500    7.7980    1.8490 hc        1 MOL      0.046198
     35 H15         0.4410    7.2220    3.1780 hc        1 MOL      0.046198
     36 H16        -1.1820    5.6020    3.7760 hx        1 MOL      0.124431
     37 H17        -2.5350    6.2960    2.7290 hx        1 MOL      0.124431
     38 H18        -2.6630    7.1010    4.9650 hn        1 MOL      0.353696
     39 H19        -1.2740    7.9590    4.8300 hn        1 MOL      0.353696
     40 H20        -2.5540    8.2640    3.8650 hn        1 MOL      0.353696
     41 N4         -2.8400    3.9110   -1.5670 n         1 MOL     -0.213284
     42 C13        -3.8540    3.9840   -2.6870 c3        1 MOL      0.270727
     43 C14        -5.1650    3.4190   -2.1460 c         1 MOL      0.352506
     44 O6         -6.2250    3.8060   -2.6930 o         1 MOL     -0.539407
     45 C15        -3.3610    3.1770   -3.9420 c3        1 MOL     -0.538109
     46 C16        -2.4300    2.0110   -3.6060 c         1 MOL      0.899987
     47 O7         -1.5990    1.6960   -4.4280 o         1 MOL     -0.726390
     48 O8         -2.4290    1.4420   -2.5210 o         1 MOL     -0.726390
     49 H21        -2.7880    3.0190   -1.1010 hn        1 MOL      0.007710
     50 H22        -4.1180    4.9720   -3.0440 h1        1 MOL      0.062881
     51 H23        -2.6710    3.8960   -4.3800 hc        1 MOL      0.138517
     52 H24        -4.2070    2.7840   -4.5000 hc        1 MOL      0.138517
     53 N5         -5.1750    2.5690   -1.1160 n         1 MOL     -0.188257
     54 C17        -6.4500    2.1250   -0.4620 c3        1 MOL     -0.176007
     55 C18        -7.0080    0.7690   -0.9700 c         1 MOL      0.646585
     56 O9         -8.2020    0.6040   -0.9100 o         1 MOL     -0.599440
     57 H25        -4.3500    2.0840   -0.8040 hn        1 MOL      0.188380
     58 H26        -7.2080    2.8910   -0.5860 h1        1 MOL      0.101686
     59 H27        -6.2520    1.9290    0.6030 h1        1 MOL      0.101686
     60 N6         -6.1780   -0.2030   -1.4290 n         1 MOL     -0.259485
     61 C19        -6.6480   -1.4210   -2.0600 c3        1 MOL     -0.085060
     62 C20        -6.9070   -2.5790   -1.1000 c         1 MOL      0.452032
     63 O10        -6.9900   -3.7510   -1.5280 o         1 MOL     -0.515078
     64 C21        -5.5740   -1.8180   -3.1550 c3        1 MOL     -0.255264
     65 C22        -4.1350   -1.8970   -2.6980 c         1 MOL      0.853782
     66 O11        -3.3010   -1.4160   -3.4030 o         1 MOL     -0.767757
     67 O12        -3.8080   -2.3540   -1.5730 o         1 MOL     -0.767757
     68 H28        -5.1870   -0.0840   -1.2890 hn        1 MOL      0.120261
     69 H29        -7.5850   -1.2460   -2.5750 h1        1 MOL      0.131522
     70 H30        -5.6380   -1.0700   -3.9460 hc        1 MOL      0.084415
     71 H31        -5.8900   -2.7970   -3.5120 hc        1 MOL      0.084415
     72 N7         -6.8650   -2.3250    0.2340 n         1 MOL     -0.335899
     73 C23        -6.9420   -3.3640    1.2450 c3        1 MOL     -0.105071
     74 C24        -5.6470   -4.1290    1.5190 c         1 MOL      0.594699
     75 O13        -5.5960   -4.9630    2.3840 o         1 MOL     -0.613161
     76 H32        -6.5140   -1.4040    0.4240 hn        1 MOL      0.293517
     77 H33        -7.7530   -4.0370    0.9500 h1        1 MOL      0.087875
     78 H34        -7.2300   -2.9110    2.1930 h1        1 MOL      0.087875
     79 N8         -4.5370   -3.8220    0.8730 n         1 MOL     -0.225145
     80 C25        -3.2850   -4.5450    0.8910 c3        1 MOL     -0.107054
     81 C26        -2.0440   -3.5550    0.9620 c         1 MOL      0.643982
     82 O14        -2.1040   -2.4230    0.5230 o         1 MOL     -0.630282
     83 C27        -3.0940   -5.5370   -0.2500 c3        1 MOL      0.473500
     84 C28        -3.5100   -6.9310    0.1520 c3        1 MOL     -0.556925
     85 O15        -3.7550   -5.1170   -1.4000 oh        1 MOL     -0.628481
     86 H35        -4.6460   -3.1630    0.1120 hn        1 MOL      0.179420
     87 H36        -3.2130   -5.0670    1.8410 h1        1 MOL      0.082699
     88 H37        -2.0960   -5.4410   -0.6820 h1        1 MOL     -0.026796
     89 H38        -3.7240   -4.1620   -1.3460 ho        1 MOL      0.422316
     90 H39        -3.6830   -7.5010   -0.7630 hc        1 MOL      0.143675
     91 H40        -2.7040   -7.3420    0.7610 hc        1 MOL      0.143675
     92 H41        -4.4520   -6.9490    0.7100 hc        1 MOL      0.143675
     93 N9         -0.8880   -3.9460    1.5600 n         1 MOL     -0.714680
     94 C29         0.3780   -3.1290    1.7310 c3        1 MOL      0.241868
     95 C30         1.5260   -3.7080    0.9130 c         1 MOL      0.448470
     96 O16         1.8200   -4.8900    1.0040 o         1 MOL     -0.555521
     97 C31         0.6480   -3.0050    3.2340 c3        1 MOL      0.077292
     98 C32        -0.5290   -2.2000    3.9650 c3        1 MOL      0.221316
     99 C33         2.0580   -2.3830    3.5000 c3        1 MOL     -0.304916
    100 C34        -0.6030   -2.5030    5.4500 c3        1 MOL     -0.357517
    101 H42        -0.9330   -4.8980    1.8950 hn        1 MOL      0.314089
    102 H43         0.1500   -2.1520    1.2990 h1        1 MOL      0.010231
    103 H44         0.4900   -4.0010    3.6490 hc        1 MOL      0.011584
    104 H45        -1.4580   -2.5920    3.5360 hc        1 MOL     -0.002142
    105 H46        -0.4210   -1.1590    3.6610 hc        1 MOL     -0.002142
    106 H47         2.8620   -2.9620    3.0500 hc        1 MOL      0.044196
    107 H48         2.1590   -1.3850    3.0760 hc        1 MOL      0.044196
    108 H49         2.2160   -2.2780    4.5740 hc        1 MOL      0.044196
    109 H50         0.1830   -1.9220    5.9310 hc        1 MOL      0.080185
    110 H51        -1.5860   -2.2030    5.7880 hc        1 MOL      0.080185
    111 H52        -0.3470   -3.5310    5.7180 hc        1 MOL      0.080185
    112 N10         2.2530   -2.8210    0.1930 n         1 MOL     -0.035804
    113 C35         3.4520   -3.1180   -0.5780 c3        1 MOL     -0.117198
    114 C36         4.7660   -2.8750    0.0850 c         1 MOL      0.445256
    115 O17         4.7930   -2.2990    1.1860 o         1 MOL     -0.450025
    116 C37         3.4920   -2.2060   -1.8700 c3        1 MOL      0.158555
    117 C38         2.3240   -2.5840   -2.7830 c3        1 MOL     -0.398325
    118 O18         3.5250   -0.8370   -1.6440 oh        1 MOL     -0.506701
    119 H53         1.9130   -1.8860    0.0590 hn        1 MOL      0.259029
    120 H54         3.4970   -4.1790   -0.8340 h1        1 MOL      0.058248
    121 H55         4.4020   -2.4230   -2.4160 h1        1 MOL      0.037214
    122 H56         2.6730   -0.7120   -1.2150 ho        1 MOL      0.366684
    123 H57         1.4330   -2.5950   -2.1710 hc        1 MOL      0.104962
    124 H58         2.3000   -1.8020   -3.5430 hc        1 MOL      0.104962
    125 H59         2.5210   -3.4890   -3.3640 hc        1 MOL      0.104962
    126 N11         5.8230   -3.2860   -0.6220 n         1 MOL     -0.310276
    127 C39         7.1970   -3.0050   -0.1870 c3        1 MOL     -0.167934
    128 C40         7.5350   -1.4550   -0.1850 c         1 MOL      0.422472
    129 O19         8.2500   -1.1080    0.7540 o         1 MOL     -0.496208
    130 C41         8.1850   -3.7220   -1.0630 c3        1 MOL      0.375636
    131 C42         8.5210   -5.1670   -0.6510 c3        1 MOL     -0.376368
    132 O20         7.8730   -3.4680   -2.3870 oh        1 MOL     -0.684212
    133 H60         5.5960   -3.8270   -1.4420 hn        1 MOL      0.250328
    134 H61         7.3000   -3.3670    0.8380 h1        1 MOL      0.139467
    135 H62         9.1150   -3.1990   -0.8390 h1        1 MOL      0.027292
    136 H63         8.0860   -4.2140   -2.9400 ho        1 MOL      0.446097
    137 H64         9.2300   -5.5550   -1.3810 hc        1 MOL      0.100872
    138 H65         8.7480   -5.2850    0.4070 hc        1 MOL      0.100872
    139 H66         7.6830   -5.8040   -0.9150 hc        1 MOL      0.100872
    140 N12         7.1110   -0.7270   -1.1740 n         1 MOL     -0.204431
    141 C43         7.2120    0.7740   -1.2040 c3        1 MOL     -0.208952
    142 C44         6.3840    1.4180   -0.0070 c         1 MOL      0.368325
    143 O21         6.9940    2.3390    0.6060 o         1 MOL     -0.524620
    144 C45         6.6330    1.2340   -2.6510 c3        1 MOL      0.115960
    145 C46         7.0080    2.7150   -2.7300 c3        1 MOL     -0.244525
    146 C47         6.4030    3.3000   -4.0060 c3        1 MOL      0.062780
    147 C48         6.5670    4.8030   -4.0210 c3        1 MOL      0.019833
    148 N13         5.8840    5.3550   -5.1810 n4        1 MOL     -0.343717
    149 H67         6.7520   -1.1990   -1.9930 hn        1 MOL      0.240260
    150 H68         8.2750    1.0260   -1.1820 h1        1 MOL      0.156653
    151 H69         5.5520    1.1190   -2.6910 hc        1 MOL      0.012146
    152 H70         7.0330    0.6540   -3.4910 hc        1 MOL      0.012146
    153 H71         8.0970    2.6670   -2.7230 hc        1 MOL      0.087110
    154 H72         6.5810    3.2330   -1.8830 hc        1 MOL      0.087110
    155 H73         5.3520    2.9930   -4.0940 hc        1 MOL      0.022663
    156 H74         6.9570    2.8690   -4.8360 hc        1 MOL      0.022663
    157 H75         7.5840    5.1630   -4.1900 hx        1 MOL      0.092539
    158 H76         6.1440    5.1750   -3.0880 hx        1 MOL      0.092539
    159 H77         4.9340    5.0120   -5.2000 hn        1 MOL      0.324096
    160 H78         5.7660    6.3360   -4.9670 hn        1 MOL      0.324096
    161 H79         6.3480    5.2080   -6.0640 hn        1 MOL      0.324096
    162 N14         5.1920    1.0010    0.2170 n         1 MOL     -0.064011
    163 C49         4.2780    1.4970    1.3530 c3        1 MOL     -0.089274
    164 C50         4.8210    1.2540    2.7570 c         1 MOL      0.376824
    165 O22         4.6470    2.1660    3.6100 o         1 MOL     -0.528867
    166 C51         2.9420    0.8360    1.1690 c3        1 MOL      0.184140
    167 C52         2.0080    1.4200    0.0900 c3        1 MOL     -0.232214
    168 C53         0.8760    0.5450   -0.2340 c         1 MOL      0.768996
    169 O23         1.0220   -0.6070   -0.6970 o         1 MOL     -0.765641
    170 O24        -0.2710    0.9230   -0.1070 o         1 MOL     -0.765641
    171 H80         4.8280    0.2290   -0.3190 hn        1 MOL      0.099872
    172 H81         4.0420    2.5440    1.1770 h1        1 MOL      0.090148
    173 H82         2.4030    0.9240    2.1210 hc        1 MOL     -0.004789
    174 H83         3.0400   -0.2070    0.8950 hc        1 MOL     -0.004789
    175 H84         2.5400    1.5380   -0.8620 hc        1 MOL      0.041869
    176 H85         1.7210    2.4270    0.4020 hc        1 MOL      0.041869
    177 N15         5.6020    0.1850    2.9980 n         1 MOL     -0.046025
    178 C54         6.4650   -0.0130    4.1830 c3        1 MOL     -0.297890
    179 H86         7.4350   -0.3990    3.8660 h1        1 MOL      0.117113
    180 H87         6.6040    0.9390    4.6960 h1        1 MOL      0.117113
    181 H88         5.9960   -0.7260    4.8620 h1        1 MOL      0.117113
    182 H89         5.6470   -0.6430    2.4160 hn        1 MOL      0.172066
    183 Ca1        -1.7020   -0.6600   -1.3900 Ca        1 MOL      1.785453
    184 O25        -0.9160   -3.3180   -2.2000 oh        1 MOL     -0.852126
    185 H90        -1.6020   -3.9360   -2.4370 ho        1 MOL      0.397160
    186 H91        -0.4390   -3.1670   -3.0270 ho        1 MOL      0.397160
    187 O26        -0.1940   -0.2440   -3.6070 oh        1 MOL     -0.852126
    188 H92        -0.8590    0.3910   -3.8520 ho        1 MOL      0.397160
    189 H93         0.3050   -0.3960   -4.4110 ho        1 MOL      0.397160
@<TRIPOS>BOND
     1    1    2 1   
     2    1    4 1   
     3    1    5 1   
     4    1    6 1   
     5    2    3 2   
     6    2    7 1   
     7    7    8 1   
     8    7   15 1   
     9    8    9 1   
    10    8   11 1   
    11    8   16 1   
    12    9   10 2   
    13    9   19 1   
    14   11   12 1   
    15   11   17 1   
    16   11   18 1   
    17   12   13 1   
    18   12   14 1   
    19   19   20 1   
    20   19   28 1   
    21   20   21 1   
    22   20   23 1   
    23   20   29 1   
    24   21   22 2   
    25   21   41 1   
    26   23   24 1   
    27   23   30 1   
    28   23   31 1   
    29   24   25 1   
    30   24   32 1   
    31   24   33 1   
    32   25   26 1   
    33   25   34 1   
    34   25   35 1   
    35   26   27 1   
    36   26   36 1   
    37   26   37 1   
    38   27   38 1   
    39   27   39 1   
    40   27   40 1   
    41   41   42 1   
    42   41   49 1   
    43   42   43 1   
    44   42   45 1   
    45   42   50 1   
    46   43   44 2   
    47   43   53 1   
    48   45   46 1   
    49   45   51 1   
    50   45   52 1   
    51   46   47 1   
    52   46   48 1   
    53   53   54 1   
    54   53   57 1   
    55   54   55 1   
    56   54   58 1   
    57   54   59 1   
    58   55   56 2   
    59   55   60 1   
    60   60   61 1   
    61   60   68 1   
    62   61   62 1   
    63   61   64 1   
    64   61   69 1   
    65   62   63 2   
    66   62   72 1   
    67   64   65 1   
    68   64   70 1   
    69   64   71 1   
    70   65   66 1   
    71   65   67 1   
    72   72   73 1   
    73   72   76 1   
    74   73   74 1   
    75   73   77 1   
    76   73   78 1   
    77   74   75 2   
    78   74   79 1   
    79   79   80 1   
    80   79   86 1   
    81   80   81 1   
    82   80   83 1   
    83   80   87 1   
    84   81   82 2   
    85   81   93 1   
    86   83   84 1   
    87   83   85 1   
    88   83   88 1   
    89   84   90 1   
    90   84   91 1   
    91   84   92 1   
    92   85   89 1   
    93   93   94 1   
    94   93  101 1   
    95   94   95 1   
    96   94   97 1   
    97   94  102 1   
    98   95   96 2   
    99   95  112 1   
   100   97   98 1   
   101   97   99 1   
   102   97  103 1   
   103   98  100 1   
   104   98  104 1   
   105   98  105 1   
   106   99  106 1   
   107   99  107 1   
   108   99  108 1   
   109  100  109 1   
   110  100  110 1   
   111  100  111 1   
   112  112  113 1   
   113  112  119 1   
   114  113  114 1   
   115  113  116 1   
   116  113  120 1   
   117  114  115 2   
   118  114  126 1   
   119  116  117 1   
   120  116  118 1   
   121  116  121 1   
   122  117  123 1   
   123  117  124 1   
   124  117  125 1   
   125  118  122 1   
   126  126  127 1   
   127  126  133 1   
   128  127  128 1   
   129  127  130 1   
   130  127  134 1   
   131  128  129 2   
   132  128  140 1   
   133  130  131 1   
   134  130  132 1   
   135  130  135 1   
   136  131  137 1   
   137  131  138 1   
   138  131  139 1   
   139  132  136 1   
   140  140  141 1   
   141  140  149 1   
   142  141  142 1   
   143  141  144 1   
   144  141  150 1   
   145  142  143 2   
   146  142  162 1   
   147  144  145 1   
   148  144  151 1   
   149  144  152 1   
   150  145  146 1   
   151  145  153 1   
   152  145  154 1   
   153  146  147 1   
   154  146  155 1   
   155  146  156 1   
   156  147  148 1   
   157  147  157 1   
   158  147  158 1   
   159  148  159 1   
   160  148  160 1   
   161  148  161 1   
   162  162  163 1   
   163  162  171 1   
   164  163  164 1   
   165  163  166 1   
   166  163  172 1   
   167  164  165 2   
   168  164  177 1   
   169  166  167 1   
   170  166  173 1   
   171  166  174 1   
   172  167  168 1   
   173  167  175 1   
   174  167  176 1   
   175  168  169 1   
   176  168  170 1   
   177  177  178 1   
   178  177  182 1   
   179  178  179 1   
   180  178  180 1   
   181  178  181 1   
   182  184  185 1   
   183  184  186 1   
   184  187  188 1   
   185  187  189 1   
@<TRIPOS>SUBSTRUCTURE
     1 MOL         1 TEMP              0 ****  ****    0 ROOT
