@<TRIPOS>MOLECULE
MOL
  179   176     1     0     0
SMALL
resp


@<TRIPOS>ATOM
      1 C1          3.6310   -5.3280    4.6240 c3        1 MOL     -0.255678
      2 C2          3.0710   -4.6440    3.4680 c         1 MOL      0.696642
      3 O1          2.4400   -5.2880    2.6150 o         1 MOL     -0.587592
      4 H1          2.8230   -5.6960    5.2540 hc        1 MOL      0.058277
      5 H2          4.2420   -6.1660    4.2900 hc        1 MOL      0.058277
      6 H3          4.2480   -4.6340    5.1940 hc        1 MOL      0.058277
      7 N1          3.4510   -3.3890    3.2470 n         1 MOL     -0.615782
      8 C3          3.0550   -2.6740    2.0550 c3        1 MOL      0.244561
      9 C4          4.3450   -2.5790    1.1440 c         1 MOL      0.408800
     10 O2          5.0000   -1.5010    1.0540 o         1 MOL     -0.452409
     11 C5          2.3620   -1.3130    2.3920 c3        1 MOL     -0.309113
     12 C6          1.9770   -0.5860    1.0860 c         1 MOL      1.023701
     13 O3          1.2100   -1.1990    0.3260 o         1 MOL     -0.853755
     14 O4          2.2950    0.5790    0.9000 o         1 MOL     -0.853755
     15 H4          3.9820   -2.8580    3.9190 hn        1 MOL      0.336908
     16 H5          2.2260   -3.1910    1.5700 h1        1 MOL      0.079532
     17 H6          2.9070   -0.5730    2.9860 hc        1 MOL      0.049915
     18 H7          1.4600   -1.5610    2.9350 hc        1 MOL      0.049915
     19 N2          4.6740   -3.7330    0.4680 n         1 MOL     -0.515244
     20 C7          6.0040   -3.9860   -0.1400 c3        1 MOL      0.131024
     21 C8          6.3710   -3.1800   -1.4340 c         1 MOL      0.314213
     22 O5          7.4830   -3.2670   -1.9260 o         1 MOL     -0.504704
     23 C9          6.1910   -5.4960   -0.4100 c3        1 MOL     -0.091946
     24 C10         6.1250   -6.2010    0.9380 c3        1 MOL      0.096487
     25 C11         6.5110   -7.6540    0.7470 c3        1 MOL     -0.044057
     26 C12         6.0970   -8.4890    1.9680 c3        1 MOL      0.219806
     27 N3          6.1580   -9.9140    1.7600 n4        1 MOL     -0.488984
     28 H8          3.9580   -4.4500    0.4430 hn        1 MOL      0.307160
     29 H9          6.7310   -3.6080    0.5880 h1        1 MOL      0.086706
     30 H10         7.2120   -5.5390   -0.7670 hc        1 MOL      0.057223
     31 H11         5.4420   -5.8950   -1.1040 hc        1 MOL      0.057223
     32 H12         5.1550   -6.1160    1.4400 hc        1 MOL     -0.019455
     33 H13         6.8750   -5.7780    1.6060 hc        1 MOL     -0.019455
     34 H14         7.5640   -7.7830    0.5010 hc        1 MOL      0.019622
     35 H15         5.8670   -8.0210   -0.0530 hc        1 MOL      0.019622
     36 H16         5.0910   -8.2440    2.3190 hx        1 MOL      0.037647
     37 H17         6.7790   -8.2690    2.7870 hx        1 MOL      0.037647
     38 H18         5.6640  -10.1570    0.9130 hn        1 MOL      0.356759
     39 H19         7.1090  -10.2430    1.6720 hn        1 MOL      0.356759
     40 H20         5.6260  -10.3260    2.5110 hn        1 MOL      0.356759
     41 N4          5.4580   -2.3500   -1.9960 n         1 MOL     -0.164513
     42 C13         5.7900   -1.3160   -2.9440 c3        1 MOL     -0.183958
     43 C14         6.3150    0.0040   -2.3780 c         1 MOL      0.518090
     44 O6          6.8000    0.7450   -3.1630 o         1 MOL     -0.535287
     45 C15         4.5240   -1.0020   -3.7890 c3        1 MOL     -0.091224
     46 C16         3.4340   -0.4410   -2.8470 c         1 MOL      0.701381
     47 O7          2.4460   -1.1510   -2.5380 o         1 MOL     -0.734581
     48 O8          3.5650    0.6590   -2.2890 o         1 MOL     -0.734581
     49 H21         4.4950   -2.4570   -1.6860 hn        1 MOL      0.213451
     50 H22         6.4580   -1.7100   -3.7150 h1        1 MOL      0.149890
     51 H23         4.2030   -1.9100   -4.3010 hc        1 MOL      0.041121
     52 H24         4.6840   -0.3110   -4.6070 hc        1 MOL      0.041121
     53 N5          6.4170    0.1130   -1.0380 n         1 MOL     -0.127816
     54 C17         7.0160    1.2280   -0.3110 c3        1 MOL     -0.388568
     55 C18         6.4420    2.5980   -0.7020 c         1 MOL      0.592919
     56 O9          7.0080    3.6350   -0.3530 o         1 MOL     -0.599930
     57 H25         6.0030   -0.6200   -0.4750 hn        1 MOL      0.183697
     58 H26         8.0720    1.2180   -0.5380 h1        1 MOL      0.160492
     59 H27         6.7660    1.1240    0.7440 h1        1 MOL      0.160492
     60 N6          5.2870    2.8110   -1.3480 n         1 MOL     -0.228506
     61 C19         4.7100    4.1480   -1.5350 c3        1 MOL      0.022015
     62 C20         4.0870    4.8150   -0.2300 c         1 MOL      0.385762
     63 O10         3.6930    5.9910   -0.2760 o         1 MOL     -0.474506
     64 C21         3.6760    4.1520   -2.7620 c3        1 MOL     -0.242456
     65 C22         2.1340    4.0670   -2.4200 c         1 MOL      0.531640
     66 N7          1.2690    4.8750   -2.9940 n         1 MOL     -0.592967
     67 O11         1.7170    3.2630   -1.5730 o         1 MOL     -0.668435
     68 H28         4.7880    1.9990   -1.6810 hn        1 MOL      0.187444
     69 H29         5.4650    4.8280   -1.9420 h1        1 MOL      0.117326
     70 H30         3.8900    3.3770   -3.5070 hc        1 MOL      0.099449
     71 H31         3.7800    5.1400   -3.2110 hc        1 MOL      0.099449
     72 H32         1.5910    5.5660   -3.6590 hn        1 MOL      0.318295
     73 H33         0.2710    4.7210   -2.9790 hn        1 MOL      0.318295
     74 N8          3.9720    4.0390    0.8760 n         1 MOL     -0.198181
     75 C23         3.7150    4.5620    2.2060 c3        1 MOL     -0.239946
     76 C24         2.1660    4.5820    2.5170 c         1 MOL      0.429227
     77 O12         1.7630    4.8550    3.6590 o         1 MOL     -0.559512
     78 H34         4.2430    3.0750    0.8130 hn        1 MOL      0.251782
     79 H35         4.1380    5.5470    2.3890 h1        1 MOL      0.140597
     80 H36         4.2290    3.9170    2.9340 h1        1 MOL      0.140597
     81 N9          1.2710    4.2290    1.5890 n         1 MOL     -0.071001
     82 C25        -0.2260    3.9940    1.7070 c3        1 MOL      0.101146
     83 C26        -0.7680    2.6310    1.3710 c         1 MOL      0.336732
     84 O13        -0.1370    1.9520    0.5560 o         1 MOL     -0.621671
     85 C27        -0.8400    5.0030    0.7580 c3        1 MOL     -0.032827
     86 C28        -0.8220    6.4270    1.2060 ca        1 MOL     -0.044340
     87 C29         0.3010    7.2750    1.0150 ca        1 MOL     -0.070276
     88 C30        -2.0160    7.0640    1.6110 ca        1 MOL     -0.070276
     89 C31         0.2090    8.6760    1.1920 ca        1 MOL     -0.361546
     90 C32        -2.0970    8.4340    1.9770 ca        1 MOL     -0.361546
     91 C33        -0.9670    9.2310    1.6950 ca        1 MOL      0.470019
     92 O14        -1.1960   10.5630    1.9600 oh        1 MOL     -0.574557
     93 H37         1.6640    4.0030    0.6870 hn        1 MOL      0.227759
     94 H38        -0.4650    4.2250    2.7410 h1        1 MOL      0.042108
     95 H39        -1.8690    4.6990    0.6010 hc        1 MOL      0.025752
     96 H40        -0.4420    4.9800   -0.2570 hc        1 MOL      0.025752
     97 H41         1.1330    6.8980    0.4270 ha        1 MOL      0.098505
     98 H42        -2.9120    6.4670    1.6390 ha        1 MOL      0.098505
     99 H43         1.0420    9.3320    1.0380 ha        1 MOL      0.171676
    100 H44        -2.9680    8.9490    2.3390 ha        1 MOL      0.171676
    101 H45        -2.0330   10.8870    2.2940 ho        1 MOL      0.386655
    102 N10        -2.0030    2.3260    1.8450 n         1 MOL     -0.059283
    103 C34        -2.8140    1.1960    1.4140 c3        1 MOL     -0.610385
    104 C35        -4.2730    1.6800    1.0110 c         1 MOL      0.567583
    105 O15        -4.9540    2.3570    1.7930 o         1 MOL     -0.521118
    106 C36        -2.7760   -0.0220    2.3890 c3        1 MOL      0.405116
    107 C37        -3.0360    0.4870    3.8530 c3        1 MOL     -0.055554
    108 C38        -1.4180   -0.7100    2.3300 c3        1 MOL     -0.866829
    109 C39        -2.8320   -0.5960    5.0460 c3        1 MOL     -0.262090
    110 H46        -2.3140    2.8170    2.6680 hn        1 MOL      0.205550
    111 H47        -2.3870    0.7650    0.5090 h1        1 MOL      0.393952
    112 H48        -3.5620   -0.7150    2.1050 hc        1 MOL     -0.070090
    113 H49        -4.0650    0.8090    3.9780 hc        1 MOL      0.045373
    114 H50        -2.3560    1.3240    4.0130 hc        1 MOL      0.045373
    115 H51        -0.6070    0.0210    2.4330 hc        1 MOL      0.248088
    116 H52        -1.2880   -1.4690    3.1040 hc        1 MOL      0.248088
    117 H53        -1.3330   -1.2190    1.3760 hc        1 MOL      0.248088
    118 H54        -2.8650   -1.5990    4.6380 hc        1 MOL      0.064802
    119 H55        -1.8940   -0.3180    5.5160 hc        1 MOL      0.064802
    120 H56        -3.6200   -0.4620    5.7910 hc        1 MOL      0.064802
    121 N11        -4.6690    1.2100   -0.2330 n         1 MOL     -0.307945
    122 C40        -6.0530    1.1270   -0.6780 c3        1 MOL      0.042373
    123 C41        -6.8290    0.0190   -0.1110 c         1 MOL      0.498692
    124 O16        -6.2640   -0.9010    0.4210 o         1 MOL     -0.356099
    125 C42        -5.9090    1.1580   -2.1930 c3        1 MOL     -0.063206
    126 O17        -5.4050   -0.1390   -2.6110 oh        1 MOL     -0.599835
    127 H57        -3.9400    0.7770   -0.7820 hn        1 MOL      0.118830
    128 H58        -6.5400    2.0540   -0.3930 h1        1 MOL      0.028753
    129 H59        -5.2030    1.9450   -2.4380 h1        1 MOL      0.091552
    130 H60        -6.9180    1.3780   -2.5500 h1        1 MOL      0.091552
    131 H61        -4.4450   -0.1030   -2.6380 ho        1 MOL      0.411921
    132 N12        -8.1730   -0.0590   -0.2580 n         1 MOL     -0.459859
    133 C43        -9.0100   -1.1370    0.3490 c3        1 MOL      0.051307
    134 C44        -8.6880   -2.4960   -0.2990 c         1 MOL      0.595565
    135 O18        -8.7130   -3.4890    0.4180 o         1 MOL     -0.575056
    136 C45       -10.4890   -0.7760    0.2540 c3        1 MOL     -0.309922
    137 H62        -8.7090    0.5970   -0.7990 hn        1 MOL      0.292608
    138 H63        -8.6900   -1.3830    1.3600 h1        1 MOL      0.087725
    139 H64       -11.2090   -1.4620    0.6950 hc        1 MOL      0.095530
    140 H65       -10.6330    0.2590    0.5920 hc        1 MOL      0.095530
    141 H66       -10.8790   -0.6960   -0.7590 hc        1 MOL      0.095530
    142 N13        -8.4700   -2.5290   -1.5530 n         1 MOL     -0.528522
    143 C46        -7.9610   -3.7100   -2.3070 c3        1 MOL      0.268195
    144 C47        -6.5230   -4.1140   -1.8820 c         1 MOL      0.327024
    145 O19        -6.3260   -5.2910   -1.9660 o         1 MOL     -0.522510
    146 C48        -8.0570   -3.4010   -3.7940 c3        1 MOL     -0.350234
    147 H67        -8.5720   -1.6360   -1.9940 hn        1 MOL      0.292522
    148 H68        -8.6240   -4.5630   -2.1350 h1        1 MOL      0.063310
    149 H69        -9.1050   -3.3460   -4.0820 hc        1 MOL      0.091462
    150 H70        -7.5370   -2.4650   -3.9740 hc        1 MOL      0.091462
    151 H71        -7.5790   -4.2670   -4.2630 hc        1 MOL      0.091462
    152 N14        -5.7430   -3.2350   -1.3490 n         1 MOL     -0.086539
    153 C49        -4.4190   -3.6290   -0.7410 c3        1 MOL     -0.010973
    154 C50        -4.5030   -4.1390    0.6920 c         1 MOL      0.398724
    155 O20        -3.8590   -5.1380    1.0500 o         1 MOL     -0.560598
    156 C51        -3.4850   -2.4490   -0.7700 c3        1 MOL      0.029209
    157 C52        -2.9180   -2.2330   -2.1690 c3        1 MOL     -0.064589
    158 C53        -2.2240   -0.8560   -2.1700 c         1 MOL      0.699104
    159 O21        -2.9120    0.1240   -2.5160 o         1 MOL     -0.698875
    160 O22        -1.1630   -0.6910   -1.5880 o         1 MOL     -0.698875
    161 H72        -6.0590   -2.2730   -1.3280 hn        1 MOL      0.142449
    162 H73        -3.8870   -4.4100   -1.2810 h1        1 MOL      0.078575
    163 H74        -2.6460   -2.6300   -0.0920 hc        1 MOL      0.033351
    164 H75        -3.9640   -1.5550   -0.3830 hc        1 MOL      0.033351
    165 H76        -3.6550   -2.2380   -2.9770 hc        1 MOL      0.002019
    166 H77        -2.1450   -2.9650   -2.4110 hc        1 MOL      0.002019
    167 N15        -5.3850   -3.5660    1.4590 n         1 MOL     -0.015620
    168 C54        -5.8120   -4.0580    2.7890 c3        1 MOL     -0.341953
    169 H78        -6.9000   -4.0420    2.8500 h1        1 MOL      0.125803
    170 H79        -5.4560   -5.0790    2.9310 h1        1 MOL      0.125803
    171 H80        -5.3950   -3.4170    3.5660 h1        1 MOL      0.125803
    172 H81        -5.8970   -2.7780    1.0820 hn        1 MOL      0.103451
    173 Ca1         0.9370    0.7630   -1.4950 Ca        1 MOL      1.789244
    174 O23        -1.4100    2.2640   -2.1410 oh        1 MOL     -0.774626
    175 H82        -1.7460    3.0010   -2.6430 ho        1 MOL      0.384261
    176 H83        -2.1310    1.6430   -2.1130 ho        1 MOL      0.384261
    177 O24         0.4610    0.9800   -4.1850 oh        1 MOL     -0.774626
    178 H84         0.8120    0.6360   -5.0070 ho        1 MOL      0.384261
    179 H85         0.1220    1.8380   -4.4100 ho        1 MOL      0.384261
@<TRIPOS>BOND
     1    1    2 1   
     2    1    4 1   
     3    1    5 1   
     4    1    6 1   
     5    2    3 2   
     6    2    7 1   
     7    7    8 1   
     8    7   15 1   
     9    8    9 1   
    10    8   11 1   
    11    8   16 1   
    12    9   10 2   
    13    9   19 1   
    14   11   12 1   
    15   11   17 1   
    16   11   18 1   
    17   12   13 1   
    18   12   14 1   
    19   19   20 1   
    20   19   28 1   
    21   20   21 1   
    22   20   23 1   
    23   20   29 1   
    24   21   22 2   
    25   21   41 1   
    26   23   24 1   
    27   23   30 1   
    28   23   31 1   
    29   24   25 1   
    30   24   32 1   
    31   24   33 1   
    32   25   26 1   
    33   25   34 1   
    34   25   35 1   
    35   26   27 1   
    36   26   36 1   
    37   26   37 1   
    38   27   38 1   
    39   27   39 1   
    40   27   40 1   
    41   41   42 1   
    42   41   49 1   
    43   42   43 1   
    44   42   45 1   
    45   42   50 1   
    46   43   44 2   
    47   43   53 1   
    48   45   46 1   
    49   45   51 1   
    50   45   52 1   
    51   46   47 1   
    52   46   48 1   
    53   53   54 1   
    54   53   57 1   
    55   54   55 1   
    56   54   58 1   
    57   54   59 1   
    58   55   56 2   
    59   55   60 1   
    60   60   61 1   
    61   60   68 1   
    62   61   62 1   
    63   61   64 1   
    64   61   69 1   
    65   62   63 2   
    66   62   74 1   
    67   64   65 1   
    68   64   70 1   
    69   64   71 1   
    70   65   66 1   
    71   65   67 2   
    72   66   72 1   
    73   66   73 1   
    74   74   75 1   
    75   74   78 1   
    76   75   76 1   
    77   75   79 1   
    78   75   80 1   
    79   76   77 2   
    80   76   81 1   
    81   81   82 1   
    82   81   93 1   
    83   82   83 1   
    84   82   85 1   
    85   82   94 1   
    86   83   84 2   
    87   83  102 1   
    88   85   86 1   
    89   85   95 1   
    90   85   96 1   
    91   86   87 ar  
    92   86   88 ar  
    93   87   89 ar  
    94   87   97 1   
    95   88   90 ar  
    96   88   98 1   
    97   89   91 ar  
    98   89   99 1   
    99   90   91 ar  
   100   90  100 1   
   101   91   92 1   
   102   92  101 1   
   103  102  103 1   
   104  102  110 1   
   105  103  104 1   
   106  103  106 1   
   107  103  111 1   
   108  104  105 2   
   109  104  121 1   
   110  106  107 1   
   111  106  108 1   
   112  106  112 1   
   113  107  109 1   
   114  107  113 1   
   115  107  114 1   
   116  108  115 1   
   117  108  116 1   
   118  108  117 1   
   119  109  118 1   
   120  109  119 1   
   121  109  120 1   
   122  121  122 1   
   123  121  127 1   
   124  122  123 1   
   125  122  125 1   
   126  122  128 1   
   127  123  124 2   
   128  123  132 1   
   129  125  126 1   
   130  125  129 1   
   131  125  130 1   
   132  126  131 1   
   133  132  133 1   
   134  132  137 1   
   135  133  134 1   
   136  133  136 1   
   137  133  138 1   
   138  134  135 2   
   139  134  142 1   
   140  136  139 1   
   141  136  140 1   
   142  136  141 1   
   143  142  143 1   
   144  142  147 1   
   145  143  144 1   
   146  143  146 1   
   147  143  148 1   
   148  144  145 2   
   149  144  152 1   
   150  146  149 1   
   151  146  150 1   
   152  146  151 1   
   153  152  153 1   
   154  152  161 1   
   155  153  154 1   
   156  153  156 1   
   157  153  162 1   
   158  154  155 2   
   159  154  167 1   
   160  156  157 1   
   161  156  163 1   
   162  156  164 1   
   163  157  158 1   
   164  157  165 1   
   165  157  166 1   
   166  158  159 1   
   167  158  160 1   
   168  167  168 1   
   169  167  172 1   
   170  168  169 1   
   171  168  170 1   
   172  168  171 1   
   173  174  175 1   
   174  174  176 1   
   175  177  178 1   
   176  177  179 1   
@<TRIPOS>SUBSTRUCTURE
     1 MOL         1 TEMP              0 ****  ****    0 ROOT
