@<TRIPOS>MOLECULE
MOL
  189   185     1     0     0
SMALL
resp


@<TRIPOS>ATOM
      1 C1         -1.1420    0.2750    6.8140 c3        1 MOL     -0.273973
      2 C2         -1.1560    0.3820    5.2600 c         1 MOL      0.754601
      3 O1         -0.0830    0.4960    4.6690 o         1 MOL     -0.591518
      4 H1         -0.3330   -0.3860    7.1250 hc        1 MOL      0.062603
      5 H2         -0.9860    1.2650    7.2450 hc        1 MOL      0.062603
      6 H3         -2.0930   -0.1280    7.1600 hc        1 MOL      0.062603
      7 N1         -2.3870    0.2700    4.6910 n         1 MOL     -0.607459
      8 C3         -2.6340    0.5420    3.3210 c3        1 MOL      0.012500
      9 C4         -3.0420    2.0520    3.0640 c         1 MOL      0.439844
     10 O2         -3.9750    2.6540    3.6790 o         1 MOL     -0.533023
     11 C5         -3.7360   -0.4280    2.8550 c3        1 MOL     -0.051930
     12 C6         -4.3590    0.0620    1.5630 c         1 MOL      0.664439
     13 O3         -3.6310    0.3430    0.6000 o         1 MOL     -0.669231
     14 O4         -5.6430   -0.0400    1.4290 o         1 MOL     -0.669231
     15 H4         -3.2130    0.1950    5.2770 hn        1 MOL      0.348882
     16 H5         -1.8010    0.3410    2.6530 h1        1 MOL      0.097392
     17 H6         -4.4810   -0.4750    3.6540 hc        1 MOL      0.010706
     18 H7         -3.4260   -1.4490    2.6600 hc        1 MOL      0.010706
     19 N2         -2.3460    2.6920    2.1280 n         1 MOL     -0.112084
     20 C7         -2.2430    4.1690    2.1200 c3        1 MOL     -0.203825
     21 C8         -3.1390    4.8500    1.1000 c         1 MOL      0.526212
     22 O5         -3.7220    5.9350    1.2890 o         1 MOL     -0.596010
     23 C9         -0.8030    4.5790    1.8670 c3        1 MOL      0.070942
     24 C10        -0.5900    6.0970    2.3800 c3        1 MOL     -0.255578
     25 C11         0.8560    6.5620    1.9610 c3        1 MOL     -0.076442
     26 C12         1.1350    6.7330    0.4170 c3        1 MOL      0.080934
     27 N3          2.6140    6.9580    0.3710 n4        1 MOL     -0.446319
     28 H8         -1.8000    2.1470    1.4790 hn        1 MOL      0.051224
     29 H9         -2.4690    4.4780    3.1340 h1        1 MOL      0.130929
     30 H10        -0.6140    4.6250    0.7990 hc        1 MOL      0.045466
     31 H11        -0.1030    3.9090    2.3630 hc        1 MOL      0.045466
     32 H12        -0.7170    6.0970    3.4700 hc        1 MOL      0.116881
     33 H13        -1.2000    6.7980    1.8150 hc        1 MOL      0.116881
     34 H14         1.5090    5.8140    2.4150 hc        1 MOL      0.054716
     35 H15         1.0570    7.5410    2.4000 hc        1 MOL      0.054716
     36 H16         0.5040    7.5520    0.0740 hx        1 MOL      0.081370
     37 H17         0.9310    5.8150   -0.1380 hx        1 MOL      0.081370
     38 H18         2.9530    7.8190    0.7590 hn        1 MOL      0.340555
     39 H19         3.0530    6.2260    0.9080 hn        1 MOL      0.340555
     40 H20         2.9780    6.8680   -0.5720 hn        1 MOL      0.340555
     41 N4         -3.4780    4.1040    0.0900 n         1 MOL     -0.204266
     42 C13        -4.1910    4.5160   -1.1330 c3        1 MOL     -0.086098
     43 C14        -5.5350    3.7100   -1.4140 c         1 MOL      0.384314
     44 O6         -6.2920    3.9910   -2.4100 o         1 MOL     -0.515748
     45 C15        -3.2460    4.4630   -2.3380 c3        1 MOL     -0.088361
     46 C16        -2.4520    3.1390   -2.5390 c         1 MOL      0.739864
     47 O7         -2.4870    2.2550   -1.6580 o         1 MOL     -0.718293
     48 O8         -1.6910    3.1390   -3.5460 o         1 MOL     -0.718293
     49 H21        -3.0040    3.2110    0.0180 hn        1 MOL      0.244351
     50 H22        -4.4770    5.5530   -0.9800 h1        1 MOL      0.110725
     51 H23        -2.5220    5.2740   -2.2080 hc        1 MOL      0.021247
     52 H24        -3.8700    4.7000   -3.2010 hc        1 MOL      0.021247
     53 N5         -5.9260    2.8030   -0.5560 n         1 MOL     -0.175166
     54 C17        -7.3980    2.2890   -0.5080 c3        1 MOL     -0.148428
     55 C18        -7.5680    1.0930   -1.3680 c         1 MOL      0.645724
     56 O9         -8.6330    1.0730   -2.0470 o         1 MOL     -0.606009
     57 H25        -5.3660    2.6070    0.2710 hn        1 MOL      0.220312
     58 H26        -8.1050    3.0700   -0.7430 h1        1 MOL      0.095143
     59 H27        -7.5710    1.9400    0.5070 h1        1 MOL      0.095143
     60 N6         -6.6920    0.0860   -1.3800 n         1 MOL     -0.276078
     61 C19        -6.9180   -1.1860   -2.1200 c3        1 MOL     -0.053613
     62 C20        -6.7130   -2.4770   -1.2500 c         1 MOL      0.382246
     63 O10        -6.7690   -3.5430   -1.8170 o         1 MOL     -0.522082
     64 C21        -5.9650   -1.1280   -3.2710 c3        1 MOL     -0.125316
     65 C22        -4.4990   -0.8250   -2.8220 c         1 MOL      0.644005
     66 O11        -3.7160   -0.2280   -3.5580 o         1 MOL     -0.651061
     67 O12        -3.9700   -1.4040   -1.8290 o         1 MOL     -0.651061
     68 H28        -5.9590    0.2020   -0.7030 hn        1 MOL      0.072437
     69 H29        -7.8940   -1.2580   -2.6040 h1        1 MOL      0.123296
     70 H30        -6.2540   -0.3390   -3.9670 hc        1 MOL      0.065739
     71 H31        -5.9930   -2.0830   -3.7990 hc        1 MOL      0.065739
     72 N7         -6.3590   -2.4460    0.0250 n         1 MOL     -0.116880
     73 C23        -6.2310   -3.5850    0.9060 c3        1 MOL     -0.131578
     74 C24        -5.0250   -4.4540    0.4790 c         1 MOL      0.571073
     75 O13        -5.0250   -5.6240    0.7680 o         1 MOL     -0.579010
     76 H32        -6.4360   -1.5510    0.4750 hn        1 MOL      0.194040
     77 H33        -7.1470   -4.1840    0.9520 h1        1 MOL      0.084912
     78 H34        -6.0250   -3.2670    1.9320 h1        1 MOL      0.084912
     79 N8         -3.9990   -3.8990   -0.1770 n         1 MOL     -0.255349
     80 C25        -2.6990   -4.5260   -0.3530 c3        1 MOL     -0.079015
     81 C26        -1.4760   -3.6620    0.0140 c         1 MOL      0.584660
     82 O14        -1.5340   -2.4720   -0.1640 o         1 MOL     -0.593925
     83 C27        -2.4500   -5.0220   -1.8050 c3        1 MOL      0.320898
     84 C28        -3.0200   -6.4240   -2.0220 c3        1 MOL     -0.520079
     85 O15        -3.1120   -4.2440   -2.8320 oh        1 MOL     -0.608287
     86 H35        -4.2780   -3.0310   -0.6090 hn        1 MOL      0.151317
     87 H36        -2.7110   -5.3320    0.3920 h1        1 MOL      0.072690
     88 H37        -1.3870   -5.1210   -1.9570 h1        1 MOL      0.073292
     89 H38        -4.0660   -4.2530   -2.8020 ho        1 MOL      0.436810
     90 H39        -2.4110   -7.1880   -1.5330 hc        1 MOL      0.134217
     91 H40        -4.0860   -6.4680   -1.8170 hc        1 MOL      0.134217
     92 H41        -2.8910   -6.7230   -3.0690 hc        1 MOL      0.134217
     93 N9         -0.3750   -4.3500    0.4350 n         1 MOL     -0.498695
     94 C29         0.8950   -3.6330    0.8330 c3        1 MOL     -0.074536
     95 C30         2.0830   -3.8960   -0.1270 c         1 MOL      0.408959
     96 O16         2.7070   -4.9460   -0.2150 o         1 MOL     -0.519772
     97 C31         1.2050   -4.0030    2.3240 c3        1 MOL      0.244012
     98 C32         0.0170   -3.4250    3.1690 c3        1 MOL     -0.065341
     99 C33         2.5830   -3.7500    2.8330 c3        1 MOL     -0.305206
    100 C34         0.1710   -3.7910    4.6580 c3        1 MOL     -0.219679
    101 H42        -0.4380   -5.3470    0.5730 hn        1 MOL      0.295315
    102 H43         0.6590   -2.5770    0.8840 h1        1 MOL      0.077461
    103 H44         1.1210   -5.0880    2.4450 hc        1 MOL     -0.009991
    104 H45        -0.8540   -4.0100    2.8850 hc        1 MOL      0.059903
    105 H46        -0.0080   -2.3280    3.1540 hc        1 MOL      0.059903
    106 H47         3.2600   -4.4480    2.3430 hc        1 MOL      0.065884
    107 H48         2.8940   -2.7050    2.7170 hc        1 MOL      0.065884
    108 H49         2.5870   -4.0490    3.8850 hc        1 MOL      0.065884
    109 H50         0.5520   -4.8150    4.7090 hc        1 MOL      0.055777
    110 H51         0.9110   -3.0970    5.0550 hc        1 MOL      0.055777
    111 H52        -0.6880   -3.7380    5.3360 hc        1 MOL      0.055777
    112 N10         2.4470   -2.8070   -0.7750 n         1 MOL     -0.069033
    113 C35         3.6160   -2.5870   -1.5470 c3        1 MOL     -0.213201
    114 C36         4.8630   -2.2770   -0.6780 c         1 MOL      0.392163
    115 O17         4.6670   -1.9270    0.4640 o         1 MOL     -0.297328
    116 C37         3.4700   -1.4670   -2.5930 c3        1 MOL      0.161852
    117 C38         2.4070   -1.7300   -3.6090 c3        1 MOL     -0.237072
    118 O18         3.1100   -0.2250   -1.9270 oh        1 MOL     -0.595380
    119 H53         1.9290   -1.9550   -0.5800 hn        1 MOL      0.261684
    120 H54         3.9490   -3.5230   -1.9990 h1        1 MOL      0.098310
    121 H55         4.3820   -1.2300   -3.1480 h1        1 MOL      0.053157
    122 H56         2.3130   -0.2600   -1.3830 ho        1 MOL      0.331083
    123 H57         2.7230   -2.4660   -4.3550 hc        1 MOL      0.073955
    124 H58         1.4200   -1.8630   -3.1690 hc        1 MOL      0.073955
    125 H59         2.3440   -0.9020   -4.3180 hc        1 MOL      0.073955
    126 N11         6.0540   -2.5280   -1.1230 n         1 MOL     -0.292515
    127 C39         7.3670   -2.2030   -0.4290 c3        1 MOL     -0.166417
    128 C40         7.4450   -0.7500    0.1340 c         1 MOL      0.441058
    129 O19         7.9360   -0.6140    1.2420 o         1 MOL     -0.487571
    130 C41         8.5250   -2.3900   -1.4130 c3        1 MOL      0.333356
    131 C42         8.7160   -3.8220   -1.8930 c3        1 MOL     -0.477236
    132 O20         8.3170   -1.5490   -2.5180 oh        1 MOL     -0.627379
    133 H60         6.1380   -2.9090   -2.0550 hn        1 MOL      0.261336
    134 H61         7.5810   -2.8970    0.3850 h1        1 MOL      0.161781
    135 H62         9.4110   -2.0880   -0.8540 h1        1 MOL      0.025240
    136 H63         9.2120   -1.3310   -2.8080 ho        1 MOL      0.399790
    137 H64         9.1500   -4.4600   -1.1260 hc        1 MOL      0.139138
    138 H65         7.7460   -4.2800   -2.1280 hc        1 MOL      0.139138
    139 H66         9.3010   -3.6960   -2.7920 hc        1 MOL      0.139138
    140 N12         6.8870    0.2190   -0.5450 n         1 MOL     -0.385285
    141 C43         6.7810    1.6680   -0.1080 c3        1 MOL      0.031730
    142 C44         5.8550    1.7800    1.1230 c         1 MOL      0.406337
    143 O21         5.9790    2.6530    1.9890 o         1 MOL     -0.540775
    144 C45         6.1320    2.5140   -1.1710 c3        1 MOL     -0.118161
    145 C46         7.1890    2.8160   -2.2210 c3        1 MOL      0.125084
    146 C47         6.6680    3.6530   -3.3930 c3        1 MOL     -0.019132
    147 C48         7.6310    3.4390   -4.5920 c3        1 MOL      0.072879
    148 N13         7.0490    4.1460   -5.7370 n4        1 MOL     -0.266622
    149 H67         6.5200   -0.0350   -1.4520 hn        1 MOL      0.332462
    150 H68         7.7270    2.1140    0.1830 h1        1 MOL      0.093128
    151 H69         5.7770    3.4500   -0.7270 hc        1 MOL      0.041664
    152 H70         5.3030    1.9910   -1.6600 hc        1 MOL      0.041664
    153 H71         7.5900    1.9000   -2.6650 hc        1 MOL     -0.025519
    154 H72         7.9530    3.4350   -1.7410 hc        1 MOL     -0.025519
    155 H73         6.7650    4.6890   -3.0760 hc        1 MOL      0.024902
    156 H74         5.6350    3.4110   -3.6450 hc        1 MOL      0.024902
    157 H75         7.6940    2.4100   -4.9480 hx        1 MOL      0.069992
    158 H76         8.6040    3.8500   -4.3120 hx        1 MOL      0.069992
    159 H77         6.1480    3.8120   -6.0490 hn        1 MOL      0.268569
    160 H78         6.9590    5.1210   -5.5050 hn        1 MOL      0.268569
    161 H79         7.6430    4.0850   -6.5620 hn        1 MOL      0.268569
    162 N14         4.9060    0.8600    1.2200 n         1 MOL     -0.069851
    163 C49         4.0260    0.8050    2.3930 c3        1 MOL     -0.259680
    164 C50         4.5470   -0.0870    3.5370 c         1 MOL      0.554340
    165 O22         4.2850    0.0360    4.7140 o         1 MOL     -0.545022
    166 C51         2.6520    0.3350    1.9450 c3        1 MOL      0.206583
    167 C52         1.8810    1.3140    1.0620 c3        1 MOL     -0.161842
    168 C53         0.7210    0.6850    0.3460 c         1 MOL      0.682795
    169 O23         0.8380   -0.2710   -0.4490 o         1 MOL     -0.709885
    170 O24        -0.4370    1.1720    0.4710 o         1 MOL     -0.709885
    171 H80         4.7270    0.2810    0.4090 hn        1 MOL      0.080380
    172 H81         3.9290    1.7920    2.8580 h1        1 MOL      0.110941
    173 H82         2.0790    0.1610    2.8520 hc        1 MOL      0.025656
    174 H83         2.8740   -0.5920    1.4160 hc        1 MOL      0.025656
    175 H84         2.5510    1.7290    0.3010 hc        1 MOL      0.017036
    176 H85         1.5600    2.1570    1.6690 hc        1 MOL      0.017036
    177 N15         5.3260   -1.1110    3.1150 n         1 MOL     -0.117294
    178 C54         5.9380   -2.1050    4.0320 c3        1 MOL     -0.373745
    179 H86         5.2260   -2.3620    4.8160 h1        1 MOL      0.132578
    180 H87         6.2010   -3.0030    3.4730 h1        1 MOL      0.132578
    181 H88         6.8360   -1.6800    4.4820 h1        1 MOL      0.132578
    182 H89         5.4170   -1.2370    2.1160 hn        1 MOL      0.109588
    183 Ca1        -1.7930   -0.1800   -1.3310 Ca        1 MOL      1.739727
    184 O25        -0.1700    0.9410   -3.2700 oh        1 MOL     -0.791487
    185 H90        -0.6410    1.7660   -3.3690 ho        1 MOL      0.371297
    186 H91         0.6600    1.0790   -3.7340 ho        1 MOL      0.371297
    187 O26        -1.4290   -2.0440   -3.2610 oh        1 MOL     -0.791487
    188 H92        -2.0200   -2.7910   -3.2030 ho        1 MOL      0.371297
    189 H93        -1.8070   -1.4830   -3.9290 ho        1 MOL      0.371297
@<TRIPOS>BOND
     1    1    2 1   
     2    1    4 1   
     3    1    5 1   
     4    1    6 1   
     5    2    3 2   
     6    2    7 1   
     7    7    8 1   
     8    7   15 1   
     9    8    9 1   
    10    8   11 1   
    11    8   16 1   
    12    9   10 2   
    13    9   19 1   
    14   11   12 1   
    15   11   17 1   
    16   11   18 1   
    17   12   13 1   
    18   12   14 1   
    19   19   20 1   
    20   19   28 1   
    21   20   21 1   
    22   20   23 1   
    23   20   29 1   
    24   21   22 2   
    25   21   41 1   
    26   23   24 1   
    27   23   30 1   
    28   23   31 1   
    29   24   25 1   
    30   24   32 1   
    31   24   33 1   
    32   25   26 1   
    33   25   34 1   
    34   25   35 1   
    35   26   27 1   
    36   26   36 1   
    37   26   37 1   
    38   27   38 1   
    39   27   39 1   
    40   27   40 1   
    41   41   42 1   
    42   41   49 1   
    43   42   43 1   
    44   42   45 1   
    45   42   50 1   
    46   43   44 2   
    47   43   53 1   
    48   45   46 1   
    49   45   51 1   
    50   45   52 1   
    51   46   47 1   
    52   46   48 1   
    53   53   54 1   
    54   53   57 1   
    55   54   55 1   
    56   54   58 1   
    57   54   59 1   
    58   55   56 2   
    59   55   60 1   
    60   60   61 1   
    61   60   68 1   
    62   61   62 1   
    63   61   64 1   
    64   61   69 1   
    65   62   63 2   
    66   62   72 1   
    67   64   65 1   
    68   64   70 1   
    69   64   71 1   
    70   65   66 1   
    71   65   67 1   
    72   72   73 1   
    73   72   76 1   
    74   73   74 1   
    75   73   77 1   
    76   73   78 1   
    77   74   75 2   
    78   74   79 1   
    79   79   80 1   
    80   79   86 1   
    81   80   81 1   
    82   80   83 1   
    83   80   87 1   
    84   81   82 2   
    85   81   93 1   
    86   83   84 1   
    87   83   85 1   
    88   83   88 1   
    89   84   90 1   
    90   84   91 1   
    91   84   92 1   
    92   85   89 1   
    93   93   94 1   
    94   93  101 1   
    95   94   95 1   
    96   94   97 1   
    97   94  102 1   
    98   95   96 2   
    99   95  112 1   
   100   97   98 1   
   101   97   99 1   
   102   97  103 1   
   103   98  100 1   
   104   98  104 1   
   105   98  105 1   
   106   99  106 1   
   107   99  107 1   
   108   99  108 1   
   109  100  109 1   
   110  100  110 1   
   111  100  111 1   
   112  112  113 1   
   113  112  119 1   
   114  113  114 1   
   115  113  116 1   
   116  113  120 1   
   117  114  115 2   
   118  114  126 1   
   119  116  117 1   
   120  116  118 1   
   121  116  121 1   
   122  117  123 1   
   123  117  124 1   
   124  117  125 1   
   125  118  122 1   
   126  126  127 1   
   127  126  133 1   
   128  127  128 1   
   129  127  130 1   
   130  127  134 1   
   131  128  129 2   
   132  128  140 1   
   133  130  131 1   
   134  130  132 1   
   135  130  135 1   
   136  131  137 1   
   137  131  138 1   
   138  131  139 1   
   139  132  136 1   
   140  140  141 1   
   141  140  149 1   
   142  141  142 1   
   143  141  144 1   
   144  141  150 1   
   145  142  143 2   
   146  142  162 1   
   147  144  145 1   
   148  144  151 1   
   149  144  152 1   
   150  145  146 1   
   151  145  153 1   
   152  145  154 1   
   153  146  147 1   
   154  146  155 1   
   155  146  156 1   
   156  147  148 1   
   157  147  157 1   
   158  147  158 1   
   159  148  159 1   
   160  148  160 1   
   161  148  161 1   
   162  162  163 1   
   163  162  171 1   
   164  163  164 1   
   165  163  166 1   
   166  163  172 1   
   167  164  165 2   
   168  164  177 1   
   169  166  167 1   
   170  166  173 1   
   171  166  174 1   
   172  167  168 1   
   173  167  175 1   
   174  167  176 1   
   175  168  169 1   
   176  168  170 1   
   177  177  178 1   
   178  177  182 1   
   179  178  179 1   
   180  178  180 1   
   181  178  181 1   
   182  184  185 1   
   183  184  186 1   
   184  187  188 1   
   185  187  189 1   
@<TRIPOS>SUBSTRUCTURE
     1 MOL         1 TEMP              0 ****  ****    0 ROOT
