@<TRIPOS>MOLECULE
MOL
  175   173     1     0     0
SMALL
resp


@<TRIPOS>ATOM
      1 C1          0.3340    4.8510    5.3020 c3        1 MOL     -0.330954
      2 C2         -0.1170    4.3910    3.9080 c         1 MOL      0.696311
      3 O1          0.7140    4.2740    3.0030 o         1 MOL     -0.550360
      4 H1          0.0230    4.1160    6.0440 hc        1 MOL      0.081077
      5 H2          1.4190    4.9470    5.3200 hc        1 MOL      0.081077
      6 H3         -0.1210    5.8140    5.5320 hc        1 MOL      0.081077
      7 N1         -1.3970    4.1670    3.6650 n         1 MOL     -0.641312
      8 C3         -1.9150    3.6890    2.3800 c3        1 MOL      0.109592
      9 C4         -1.6960    4.8170    1.3200 c         1 MOL      0.668188
     10 O2         -1.5740    6.0030    1.6750 o         1 MOL     -0.589351
     11 C5         -3.3920    3.3440    2.5860 c3        1 MOL     -0.343710
     12 C6         -4.1010    2.6460    1.4010 c         1 MOL      0.614737
     13 O3         -5.3530    2.8690    1.3160 o         1 MOL     -0.645302
     14 O4         -3.4050    2.1580    0.4860 o         1 MOL     -0.645302
     15 H4         -2.0870    4.2250    4.4050 hn        1 MOL      0.323736
     16 H5         -1.3500    2.8180    2.0340 h1        1 MOL      0.116099
     17 H6         -4.0550    4.1650    2.8280 hc        1 MOL      0.085826
     18 H7         -3.3730    2.6380    3.4170 hc        1 MOL      0.085826
     19 N2         -1.9330    4.5230    0.0090 n         1 MOL     -0.471208
     20 C7         -1.7620    5.3770   -1.1280 c3        1 MOL      0.147294
     21 C8         -2.6610    4.9280   -2.2410 c         1 MOL      0.471914
     22 O5         -2.4920    5.4740   -3.3540 o         1 MOL     -0.547968
     23 C9         -0.2910    5.2660   -1.5000 c3        1 MOL     -0.234046
     24 H8         -2.0840    3.5500   -0.1900 hn        1 MOL      0.349765
     25 H9         -2.0890    6.3680   -0.8080 h1        1 MOL      0.041173
     26 H10        -0.0510    6.0530   -2.2220 hc        1 MOL      0.062308
     27 H11         0.3560    5.1910   -0.6240 hc        1 MOL      0.062308
     28 H12         0.0480    4.3420   -1.9690 hc        1 MOL      0.062308
     29 N3         -3.5220    3.8940   -2.0060 n         1 MOL     -0.367434
     30 C10        -4.4170    3.3730   -3.0910 c3        1 MOL      0.063522
     31 C11        -5.6550    2.5480   -2.6380 c         1 MOL      0.355353
     32 O6         -6.5170    2.2090   -3.4940 o         1 MOL     -0.529394
     33 C12        -3.6130    2.5160   -4.0320 c3        1 MOL     -0.074662
     34 C13        -3.1590    1.1610   -3.5610 c         1 MOL      0.673464
     35 O7         -3.4140    0.6930   -2.4100 o         1 MOL     -0.698474
     36 O8         -2.3400    0.4670   -4.2540 o         1 MOL     -0.698474
     37 H13        -3.6550    3.4430   -1.1190 hn        1 MOL      0.133123
     38 H14        -4.6390    4.2550   -3.6890 h1        1 MOL      0.070174
     39 H15        -2.7610    3.0700   -4.4300 hc        1 MOL      0.028821
     40 H16        -4.2780    2.3400   -4.8810 hc        1 MOL      0.028821
     41 N4         -5.8220    2.1320   -1.3430 n         1 MOL     -0.234001
     42 C14        -7.0560    1.4130   -0.9620 c3        1 MOL     -0.208799
     43 C15        -7.1570   -0.1260   -1.1930 c         1 MOL      0.516725
     44 O9         -8.1140   -0.7760   -0.8760 o         1 MOL     -0.612129
     45 H17        -5.1930    2.3100   -0.5780 hn        1 MOL      0.289602
     46 H18        -7.9740    1.9360   -1.2320 h1        1 MOL      0.105151
     47 H19        -7.0420    1.4910    0.1250 h1        1 MOL      0.105151
     48 N5         -6.0810   -0.7680   -1.7040 n         1 MOL     -0.300101
     49 C16        -6.1460   -2.2040   -2.0690 c3        1 MOL      0.031207
     50 C17        -6.2370   -3.2060   -0.9010 c         1 MOL      0.508139
     51 O10        -6.0290   -4.3230   -1.1590 o         1 MOL     -0.511128
     52 C18        -4.9610   -2.4850   -2.9950 c3        1 MOL     -0.266520
     53 C19        -3.5040   -2.3880   -2.4570 c         1 MOL      0.708211
     54 N6         -2.5030   -2.4560   -3.2650 n         1 MOL     -0.777116
     55 O11        -3.3050   -2.2850   -1.3150 o         1 MOL     -0.483357
     56 H20        -5.2630   -0.1970   -1.8090 hn        1 MOL      0.261246
     57 H21        -7.0810   -2.4550   -2.5680 h1        1 MOL      0.095862
     58 H22        -5.0470   -1.8110   -3.8440 hc        1 MOL      0.057341
     59 H23        -5.0050   -3.4890   -3.4290 hc        1 MOL      0.057341
     60 H24        -2.6360   -2.4000   -4.2660 hn        1 MOL      0.365901
     61 H25        -1.5530   -2.2810   -2.9880 hn        1 MOL      0.365901
     62 N7         -6.4550   -2.7680    0.3340 n         1 MOL     -0.308190
     63 C20        -6.5070   -3.6310    1.4920 c3        1 MOL     -0.204604
     64 C21        -5.2100   -4.2760    1.9340 c         1 MOL      0.499980
     65 O12        -5.2240   -5.0210    2.9490 o         1 MOL     -0.582234
     66 H26        -6.5090   -1.7840    0.5200 hn        1 MOL      0.261060
     67 H27        -7.2190   -4.4530    1.3910 h1        1 MOL      0.112454
     68 H28        -6.9000   -3.0940    2.3530 h1        1 MOL      0.112454
     69 N8         -4.0720   -3.9560    1.2510 n         1 MOL     -0.215140
     70 C22        -2.7670   -4.3800    1.7460 c3        1 MOL     -0.001654
     71 C23        -1.7600   -3.2290    1.7600 c         1 MOL      0.537845
     72 O13        -1.9050   -2.1960    1.1230 o         1 MOL     -0.697218
     73 C24        -2.2440   -5.5060    0.8830 c3        1 MOL      0.503003
     74 C25        -2.7270   -6.9090    1.3060 c3        1 MOL     -0.409654
     75 O14        -2.5790   -5.3190   -0.4630 oh        1 MOL     -0.583549
     76 H29        -4.2180   -3.3270    0.4750 hn        1 MOL      0.172684
     77 H30        -2.8970   -4.7140    2.7750 h1        1 MOL      0.035955
     78 H31        -1.1600   -5.5000    1.0090 h1        1 MOL     -0.048527
     79 H32        -2.2660   -4.4150   -0.5430 ho        1 MOL      0.326587
     80 H33        -3.7360   -6.9880    1.6890 hc        1 MOL      0.095665
     81 H34        -2.6430   -7.5840    0.4500 hc        1 MOL      0.095665
     82 H35        -1.9630   -7.2680    1.9930 hc        1 MOL      0.095665
     83 N9         -0.7480   -3.3280    2.5850 n         1 MOL     -0.487596
     84 C26         0.4910   -2.4860    2.5270 c3        1 MOL     -0.054889
     85 C27         1.3440   -2.8420    1.2360 c         1 MOL      0.694879
     86 O15         1.6240   -4.0350    1.0450 o         1 MOL     -0.595091
     87 C28         1.3230   -2.6420    3.8680 c3        1 MOL     -0.127928
     88 C29         0.5350   -2.0120    5.1030 c3        1 MOL      0.015700
     89 C30         2.7420   -2.2130    3.8120 c3        1 MOL     -0.130081
     90 C31         0.6720   -0.4730    5.1380 c3        1 MOL     -0.252687
     91 H36        -0.5660   -4.1970    3.0800 hn        1 MOL      0.277194
     92 H37         0.1450   -1.4610    2.3810 h1        1 MOL      0.264970
     93 H38         1.4000   -3.7030    4.1200 hc        1 MOL      0.059720
     94 H39         0.6990   -2.4950    6.0700 hc        1 MOL      0.019534
     95 H40        -0.5260   -2.1550    4.9320 hc        1 MOL      0.019534
     96 H41         3.4200   -2.8270    3.2220 hc        1 MOL      0.044502
     97 H42         2.7570   -1.2030    3.3850 hc        1 MOL      0.044502
     98 H43         3.2460   -2.0570    4.7650 hc        1 MOL      0.044502
     99 H44        -0.1130   -0.1100    5.8080 hc        1 MOL      0.059490
    100 H45         1.5500   -0.0890    5.6510 hc        1 MOL      0.059490
    101 H46         0.7590   -0.0600    4.1370 hc        1 MOL      0.059490
    102 N10         1.6540   -1.8450    0.3850 n         1 MOL     -0.371006
    103 C32         2.5290   -2.0630   -0.7840 c3        1 MOL      0.018063
    104 C33         4.0200   -1.7960   -0.4410 c         1 MOL      0.489713
    105 O16         4.3840   -1.2970    0.6570 o         1 MOL     -0.436783
    106 C34         2.0720   -1.1490   -1.9190 c3        1 MOL     -0.402144
    107 C35         0.6220   -1.4510   -2.3950 c         1 MOL      0.837300
    108 O17        -0.3460   -0.9290   -1.8040 o         1 MOL     -0.682459
    109 O18         0.3590   -2.2720   -3.2450 o         1 MOL     -0.682459
    110 H47         1.1540   -0.9700    0.4360 hn        1 MOL      0.145151
    111 H48         2.5370   -3.1060   -1.1100 h1        1 MOL      0.095263
    112 H49         2.7180   -1.2380   -2.7860 hc        1 MOL      0.104107
    113 H50         2.1430   -0.0940   -1.6720 hc        1 MOL      0.104107
    114 N11         4.9500   -2.1130   -1.3480 n         1 MOL     -0.603521
    115 C36         6.3980   -1.8570   -1.2110 c3        1 MOL      0.469221
    116 C37         6.6980   -0.3390   -0.9070 c         1 MOL      0.315069
    117 O19         7.2350   -0.1350    0.1650 o         1 MOL     -0.516733
    118 C38         7.1750   -2.5160   -2.3490 c3        1 MOL     -0.188584
    119 C39         8.6940   -2.3030   -2.3770 ca        1 MOL      0.043517
    120 C40         9.4560   -2.6490   -1.2650 ca        1 MOL     -0.126826
    121 C41         9.3690   -1.5390   -3.4200 ca        1 MOL     -0.126826
    122 C42        10.8210   -2.3550   -1.1020 ca        1 MOL     -0.148918
    123 C43        10.7530   -1.4440   -3.4400 ca        1 MOL     -0.148918
    124 C44        11.4590   -1.8490   -2.2530 ca        1 MOL     -0.065905
    125 H51         4.7090   -2.6210   -2.1930 hn        1 MOL      0.311626
    126 H52         6.5940   -2.3850   -0.2710 h1        1 MOL      0.004001
    127 H53         6.6540   -2.2460   -3.2670 hc        1 MOL      0.049318
    128 H54         6.9390   -3.5800   -2.2140 hc        1 MOL      0.049318
    129 H55         8.9670   -3.2130   -0.4760 ha        1 MOL      0.109488
    130 H56         8.7990   -1.0690   -4.2170 ha        1 MOL      0.109488
    131 H57        11.4220   -2.5200   -0.2220 ha        1 MOL      0.129406
    132 H58        11.3020   -0.8870   -4.1830 ha        1 MOL      0.129406
    133 H59        12.5390   -1.7170   -2.2550 ha        1 MOL      0.077618
    134 N12         6.1880    0.7080   -1.6020 n         1 MOL     -0.121837
    135 C45         6.4130    2.1090   -1.1530 c3        1 MOL      0.170865
    136 C46         5.6820    2.4810    0.1550 c         1 MOL      0.212993
    137 O20         6.1080    3.3570    0.9200 o         1 MOL     -0.480977
    138 C47         5.8130    2.9530   -2.3050 c3        1 MOL     -0.176946
    139 C48         5.6590    1.9300   -3.4950 c3        1 MOL     -0.002431
    140 C49         5.4800    0.5620   -2.7790 c3        1 MOL     -0.083608
    141 H60         7.4790    2.2630   -1.0240 h1        1 MOL      0.053694
    142 H61         4.8110    3.2650   -2.0610 hc        1 MOL      0.067297
    143 H62         6.5440    3.7290   -2.5470 hc        1 MOL      0.067297
    144 H63         4.7740    2.1560   -4.1080 hc        1 MOL      0.029902
    145 H64         6.4990    1.9590   -4.1850 hc        1 MOL      0.029902
    146 H65         4.4500    0.3660   -2.4920 h1        1 MOL      0.039887
    147 H66         5.8950   -0.2060   -3.4460 h1        1 MOL      0.039887
    148 N13         4.5930    1.7540    0.4870 n         1 MOL     -0.051947
    149 C50         3.8810    2.1950    1.7460 c3        1 MOL     -0.105708
    150 C51         4.5340    1.7090    3.0510 c         1 MOL      0.421393
    151 O21         4.6550    2.4340    4.0170 o         1 MOL     -0.543220
    152 C52         2.4220    1.6420    1.7640 c3        1 MOL     -0.241612
    153 C53         1.7460    2.2040    0.5110 c3        1 MOL      0.168045
    154 C54         0.3220    1.6100    0.2810 c         1 MOL      0.485238
    155 O22        -0.1230    0.8370    1.0940 o         1 MOL     -0.694378
    156 O23        -0.3540    1.9740   -0.7060 o         1 MOL     -0.694378
    157 H67         4.2810    0.9860   -0.0940 hn        1 MOL      0.209863
    158 H68         3.8550    3.2820    1.8200 h1        1 MOL      0.137660
    159 H69         1.9010    2.0630    2.6280 hc        1 MOL      0.083007
    160 H70         2.4150    0.5600    1.6640 hc        1 MOL      0.083007
    161 H71         2.3550    2.0260   -0.3750 hc        1 MOL     -0.002113
    162 H72         1.6690    3.2850    0.5840 hc        1 MOL     -0.002113
    163 N14         5.1660    0.5540    2.8870 n         1 MOL      0.032051
    164 C55         6.2040    0.0260    3.8290 c3        1 MOL     -0.246881
    165 H73         7.1270    0.5930    3.7070 h1        1 MOL      0.085957
    166 H74         5.8500    0.1270    4.8550 h1        1 MOL      0.085957
    167 H75         6.3930   -1.0250    3.6110 h1        1 MOL      0.085957
    168 H76         5.0250    0.0320    2.0330 hn        1 MOL      0.058797
    169 Ca1        -2.1110    0.0370   -0.3510 Ca        1 MOL      1.660367
    170 O24        -2.3930    0.2870    2.8020 oh        1 MOL     -0.637703
    171 H77        -2.5170    0.1990    3.7520 ho        1 MOL      0.327597
    172 H78        -1.4390    0.3250    2.6950 ho        1 MOL      0.327597
    173 O25        -4.5290   -0.3610    0.7110 oh        1 MOL     -0.637703
    174 H79        -4.5850   -0.9830    1.4390 ho        1 MOL      0.327597
    175 H80        -5.2680    0.2310    0.8400 ho        1 MOL      0.327597
@<TRIPOS>BOND
     1    1    2 1   
     2    1    4 1   
     3    1    5 1   
     4    1    6 1   
     5    2    3 2   
     6    2    7 1   
     7    7    8 1   
     8    7   15 1   
     9    8    9 1   
    10    8   11 1   
    11    8   16 1   
    12    9   10 2   
    13    9   19 1   
    14   11   12 1   
    15   11   17 1   
    16   11   18 1   
    17   12   13 1   
    18   12   14 1   
    19   19   20 1   
    20   19   24 1   
    21   20   21 1   
    22   20   23 1   
    23   20   25 1   
    24   21   22 2   
    25   21   29 1   
    26   23   26 1   
    27   23   27 1   
    28   23   28 1   
    29   29   30 1   
    30   29   37 1   
    31   30   31 1   
    32   30   33 1   
    33   30   38 1   
    34   31   32 2   
    35   31   41 1   
    36   33   34 1   
    37   33   39 1   
    38   33   40 1   
    39   34   35 1   
    40   34   36 1   
    41   41   42 1   
    42   41   45 1   
    43   42   43 1   
    44   42   46 1   
    45   42   47 1   
    46   43   44 2   
    47   43   48 1   
    48   48   49 1   
    49   48   56 1   
    50   49   50 1   
    51   49   52 1   
    52   49   57 1   
    53   50   51 2   
    54   50   62 1   
    55   52   53 1   
    56   52   58 1   
    57   52   59 1   
    58   53   54 1   
    59   53   55 2   
    60   54   60 1   
    61   54   61 1   
    62   62   63 1   
    63   62   66 1   
    64   63   64 1   
    65   63   67 1   
    66   63   68 1   
    67   64   65 2   
    68   64   69 1   
    69   69   70 1   
    70   69   76 1   
    71   70   71 1   
    72   70   73 1   
    73   70   77 1   
    74   71   72 2   
    75   71   83 1   
    76   73   74 1   
    77   73   75 1   
    78   73   78 1   
    79   74   80 1   
    80   74   81 1   
    81   74   82 1   
    82   75   79 1   
    83   83   84 1   
    84   83   91 1   
    85   84   85 1   
    86   84   87 1   
    87   84   92 1   
    88   85   86 2   
    89   85  102 1   
    90   87   88 1   
    91   87   89 1   
    92   87   93 1   
    93   88   90 1   
    94   88   94 1   
    95   88   95 1   
    96   89   96 1   
    97   89   97 1   
    98   89   98 1   
    99   90   99 1   
   100   90  100 1   
   101   90  101 1   
   102  102  103 1   
   103  102  110 1   
   104  103  104 1   
   105  103  106 1   
   106  103  111 1   
   107  104  105 2   
   108  104  114 1   
   109  106  107 1   
   110  106  112 1   
   111  106  113 1   
   112  107  108 1   
   113  107  109 1   
   114  114  115 1   
   115  114  125 1   
   116  115  116 1   
   117  115  118 1   
   118  115  126 1   
   119  116  117 2   
   120  116  134 1   
   121  118  119 1   
   122  118  127 1   
   123  118  128 1   
   124  119  120 ar  
   125  119  121 ar  
   126  120  122 ar  
   127  120  129 1   
   128  121  123 ar  
   129  121  130 1   
   130  122  124 ar  
   131  122  131 1   
   132  123  124 ar  
   133  123  132 1   
   134  124  133 1   
   135  134  135 1   
   136  134  140 1   
   137  135  136 1   
   138  135  138 1   
   139  135  141 1   
   140  136  137 2   
   141  136  148 1   
   142  138  139 1   
   143  138  142 1   
   144  138  143 1   
   145  139  140 1   
   146  139  144 1   
   147  139  145 1   
   148  140  146 1   
   149  140  147 1   
   150  148  149 1   
   151  148  157 1   
   152  149  150 1   
   153  149  152 1   
   154  149  158 1   
   155  150  151 2   
   156  150  163 1   
   157  152  153 1   
   158  152  159 1   
   159  152  160 1   
   160  153  154 1   
   161  153  161 1   
   162  153  162 1   
   163  154  155 1   
   164  154  156 1   
   165  163  164 1   
   166  163  168 1   
   167  164  165 1   
   168  164  166 1   
   169  164  167 1   
   170  170  171 1   
   171  170  172 1   
   172  173  174 1   
   173  173  175 1   
@<TRIPOS>SUBSTRUCTURE
     1 MOL         1 TEMP              0 ****  ****    0 ROOT
