@<TRIPOS>MOLECULE
MOL
  172   171     1     0     0
SMALL
resp


@<TRIPOS>ATOM
      1 C1          0.4790    3.9900    5.5580 c3        1 MOL     -0.362992
      2 C2         -0.1470    3.9570    4.1300 c         1 MOL      0.701025
      3 O1          0.4860    4.5130    3.2620 o         1 MOL     -0.529450
      4 H1         -0.1690    3.4530    6.2500 hc        1 MOL      0.079218
      5 H2          1.4600    3.5150    5.5360 hc        1 MOL      0.079218
      6 H3          0.5830    5.0240    5.8860 hc        1 MOL      0.079218
      7 N1         -1.3770    3.4690    3.9660 n         1 MOL     -0.553438
      8 C3         -2.0030    3.2340    2.6480 c3        1 MOL      0.106773
      9 C4         -2.0680    4.5360    1.8740 c         1 MOL      0.563908
     10 O2         -2.1460    5.6120    2.4960 o         1 MOL     -0.559246
     11 C5         -3.4300    2.6860    2.8750 c3        1 MOL     -0.378213
     12 C6         -4.1830    2.3940    1.5790 c         1 MOL      0.736601
     13 O3         -3.5400    2.0100    0.5650 o         1 MOL     -0.648879
     14 O4         -5.3930    2.4310    1.5630 o         1 MOL     -0.648879
     15 H4         -1.8820    3.2330    4.8100 hn        1 MOL      0.311566
     16 H5         -1.4180    2.4830    2.1260 h1        1 MOL      0.036117
     17 H6         -4.0090    3.4370    3.4040 hc        1 MOL      0.075438
     18 H7         -3.4180    1.7440    3.4250 hc        1 MOL      0.075438
     19 N2         -1.9300    4.4320    0.5380 n         1 MOL     -0.488376
     20 C7         -2.3750    5.4370   -0.4560 c3        1 MOL      0.275024
     21 C8         -3.3350    4.8730   -1.5990 c         1 MOL      0.601025
     22 O5         -3.5050    5.6500   -2.4940 o         1 MOL     -0.589308
     23 C9         -1.0420    6.0820   -0.8280 c3        1 MOL     -0.123591
     24 H8         -1.6140    3.5620    0.1170 hn        1 MOL      0.318324
     25 H9         -2.9930    6.2060    0.0140 h1        1 MOL     -0.003887
     26 H10        -0.8820    6.8470   -0.0590 hc        1 MOL      0.014442
     27 H11        -0.2200    5.3670   -0.9000 hc        1 MOL      0.014442
     28 H12        -1.1760    6.5990   -1.7710 hc        1 MOL      0.014442
     29 N3         -3.9990    3.7320   -1.4990 n         1 MOL     -0.587488
     30 C10        -4.7000    3.2380   -2.7470 c3        1 MOL      0.309507
     31 C11        -6.1100    2.5730   -2.4530 c         1 MOL      0.271166
     32 O6         -6.9790    2.5980   -3.3250 o         1 MOL     -0.529835
     33 C12        -3.9500    2.2700   -3.6290 c3        1 MOL     -0.161032
     34 C13        -3.3230    1.1270   -2.8880 c         1 MOL      0.668379
     35 O7         -2.1120    0.8660   -3.0230 o         1 MOL     -0.694433
     36 O8         -3.9930    0.5550   -2.0130 o         1 MOL     -0.694433
     37 H13        -3.9400    3.0970   -0.7180 hn        1 MOL      0.249657
     38 H14        -4.9080    4.0890   -3.3870 h1        1 MOL      0.023596
     39 H15        -3.1430    2.8780   -4.0560 hc        1 MOL      0.033616
     40 H16        -4.5760    1.9850   -4.4670 hc        1 MOL      0.033616
     41 N4         -6.4050    2.0550   -1.2450 n         1 MOL     -0.120432
     42 C14        -7.6600    1.3350   -0.8500 c3        1 MOL     -0.258101
     43 C15        -7.6510   -0.1210   -1.2570 c         1 MOL      0.478086
     44 O9         -8.7550   -0.6430   -1.4560 o         1 MOL     -0.591765
     45 H17        -5.6630    2.0460   -0.5560 hn        1 MOL      0.145963
     46 H18        -8.4710    1.8370   -1.3780 h1        1 MOL      0.132338
     47 H19        -7.7800    1.3860    0.2360 h1        1 MOL      0.132338
     48 N5         -6.4940   -0.7860   -1.4650 n         1 MOL     -0.024606
     49 C16        -6.3740   -2.2480   -1.8260 c3        1 MOL     -0.321105
     50 C17        -6.3180   -3.2540   -0.6720 c         1 MOL      0.556827
     51 O10        -6.2700   -4.4260   -0.8970 o         1 MOL     -0.527452
     52 C18        -5.1440   -2.4560   -2.7600 c3        1 MOL     -0.036269
     53 C19        -3.7600   -2.2980   -2.1520 c         1 MOL      0.432616
     54 N6         -2.7840   -2.3660   -2.9980 n         1 MOL     -0.473190
     55 O11        -3.5270   -2.2170   -0.9310 o         1 MOL     -0.324927
     56 H20        -5.6430   -0.2470   -1.3310 hn        1 MOL      0.128072
     57 H21        -7.2490   -2.4420   -2.4440 h1        1 MOL      0.165306
     58 H22        -5.2960   -1.7660   -3.5900 hc        1 MOL      0.054051
     59 H23        -5.1780   -3.4800   -3.1130 hc        1 MOL      0.054051
     60 H24        -3.0270   -2.5350   -3.9630 hn        1 MOL      0.281587
     61 H25        -1.8150   -2.3660   -2.6870 hn        1 MOL      0.281587
     62 N7         -6.2050   -2.8290    0.5650 n         1 MOL     -0.392807
     63 C20        -6.1290   -3.6500    1.7950 c3        1 MOL     -0.160148
     64 C21        -4.8080   -4.3240    2.1460 c         1 MOL      0.498308
     65 O12        -4.8250   -5.1450    3.0260 o         1 MOL     -0.575244
     66 H26        -6.1470   -1.8420    0.7450 hn        1 MOL      0.269958
     67 H27        -6.8430   -4.4400    1.5730 h1        1 MOL      0.110796
     68 H28        -6.5700   -3.0780    2.6210 h1        1 MOL      0.110796
     69 N8         -3.7110   -4.0070    1.4470 n         1 MOL     -0.196316
     70 C22        -2.3510   -4.5720    1.5700 c3        1 MOL     -0.147634
     71 C23        -1.3420   -3.4670    1.6530 c         1 MOL      0.329027
     72 O13        -1.4980   -2.4190    1.0050 o         1 MOL     -0.501365
     73 C24        -1.9360   -5.3110    0.2900 c3        1 MOL      0.563432
     74 C25        -2.4890   -6.6560    0.3540 c3        1 MOL     -0.447096
     75 O14        -2.4530   -4.7190   -0.8980 oh        1 MOL     -0.573492
     76 H29        -3.8120   -3.2240    0.8160 hn        1 MOL      0.287201
     77 H30        -2.3260   -5.2270    2.4370 h1        1 MOL      0.099863
     78 H31        -0.8460   -5.3470    0.3090 h1        1 MOL     -0.034268
     79 H32        -2.6700   -3.7980   -0.7210 ho        1 MOL      0.193454
     80 H33        -2.0490   -7.1800   -0.4970 hc        1 MOL      0.100701
     81 H34        -2.1010   -7.1400    1.2520 hc        1 MOL      0.100701
     82 H35        -3.5800   -6.6290    0.3490 hc        1 MOL      0.100701
     83 N9         -0.2340   -3.6700    2.3410 n         1 MOL     -0.273498
     84 C26         0.8990   -2.7870    2.1980 c3        1 MOL     -0.112096
     85 C27         1.7370   -3.0020    0.8770 c         1 MOL      0.573449
     86 O15         2.4450   -4.0080    0.6930 o         1 MOL     -0.587446
     87 C28         1.7630   -2.6970    3.4720 c3        1 MOL      0.120443
     88 C29         0.9370   -1.9610    4.5210 c3        1 MOL      0.183120
     89 C30         3.0650   -1.9340    3.2800 c3        1 MOL     -0.075213
     90 C31         1.4490   -2.3420    5.9450 c3        1 MOL     -0.220435
     91 H36        -0.1700   -4.5060    2.8980 hn        1 MOL      0.247280
     92 H37         0.6000   -1.7330    2.1910 h1        1 MOL      0.039761
     93 H38         1.9540   -3.6880    3.8820 hc        1 MOL     -0.017591
     94 H39        -0.0970   -2.3300    4.5440 hc        1 MOL     -0.039224
     95 H40         0.9290   -0.8850    4.3780 hc        1 MOL     -0.039224
     96 H41         2.8870   -0.8900    3.0360 hc        1 MOL      0.009409
     97 H42         3.6540   -1.8900    4.1940 hc        1 MOL      0.009409
     98 H43         3.7440   -2.4820    2.6290 hc        1 MOL      0.009409
     99 H44         2.5010   -2.0550    6.0430 hc        1 MOL      0.035569
    100 H45         0.7520   -1.8310    6.6130 hc        1 MOL      0.035569
    101 H46         1.3430   -3.4050    6.1260 hc        1 MOL      0.035569
    102 N10         1.7050   -1.9460   -0.0240 n         1 MOL     -0.253992
    103 C32         2.5220   -1.9340   -1.1730 c3        1 MOL      0.022519
    104 C33         3.9670   -1.5180   -0.6640 c         1 MOL      0.460195
    105 O16         4.1820   -0.8950    0.3960 o         1 MOL     -0.364241
    106 C34         1.9160   -1.1300   -2.3320 c3        1 MOL     -0.293130
    107 C35         0.4530   -1.4660   -2.7420 c         1 MOL      0.734019
    108 O17        -0.4820   -1.3440   -1.9200 o         1 MOL     -0.659722
    109 O18         0.2290   -1.8380   -3.9310 o         1 MOL     -0.659722
    110 H47         1.1820   -1.1090    0.1520 hn        1 MOL      0.125769
    111 H48         2.4540   -2.9570   -1.5490 h1        1 MOL      0.082260
    112 H49         2.5390   -1.3490   -3.1900 hc        1 MOL      0.071060
    113 H50         1.9220   -0.0640   -2.1040 hc        1 MOL      0.071060
    114 N11         4.8930   -1.7210   -1.6140 n         1 MOL     -0.674255
    115 C36         6.2620   -1.3890   -1.3620 c3        1 MOL      0.409609
    116 C37         6.6340    0.1400   -1.1070 c         1 MOL      0.206197
    117 O19         7.1860    0.4700   -0.0620 o         1 MOL     -0.458687
    118 C38         7.1870   -2.0680   -2.4630 c3        1 MOL     -0.220563
    119 C39         8.6260   -1.9580   -2.1270 ca        1 MOL      0.091524
    120 C40         9.1540   -2.4870   -0.8940 ca        1 MOL     -0.126773
    121 C41         9.5370   -1.4090   -3.0210 ca        1 MOL     -0.126773
    122 C42        10.5260   -2.5290   -0.6460 ca        1 MOL     -0.179625
    123 C43        10.9290   -1.3010   -2.7640 ca        1 MOL     -0.179625
    124 C44        11.3870   -1.8250   -1.5480 ca        1 MOL     -0.038725
    125 H51         4.6600   -2.2140   -2.4660 hn        1 MOL      0.357295
    126 H52         6.5470   -1.8920   -0.4380 h1        1 MOL      0.047052
    127 H53         7.1080   -1.5890   -3.4440 hc        1 MOL      0.062720
    128 H54         6.9400   -3.1100   -2.6580 hc        1 MOL      0.062720
    129 H55         8.5420   -3.0270   -0.1840 ha        1 MOL      0.110578
    130 H56         9.2320   -0.9760   -3.9550 ha        1 MOL      0.110578
    131 H57        10.8770   -3.0300    0.2450 ha        1 MOL      0.132164
    132 H58        11.5850   -0.8350   -3.4740 ha        1 MOL      0.132164
    133 H59        12.4480   -1.8600   -1.3090 ha        1 MOL      0.072695
    134 N12         6.1570    1.1050   -1.8920 n         1 MOL     -0.050696
    135 C45         6.2350    2.5560   -1.5530 c3        1 MOL      0.091544
    136 C46         5.6290    2.9260   -0.1900 c         1 MOL      0.207455
    137 O20         6.2300    3.7420    0.4530 o         1 MOL     -0.468265
    138 C47         5.5060    3.2620   -2.6930 c3        1 MOL     -0.075166
    139 C48         5.7350    2.2960   -3.8810 c3        1 MOL     -0.071300
    140 C49         5.5770    0.9390   -3.1730 c3        1 MOL     -0.029623
    141 H60         7.2830    2.8460   -1.5490 h1        1 MOL      0.058966
    142 H61         4.4430    3.2830   -2.5050 hc        1 MOL      0.048860
    143 H62         5.9330    4.2570   -2.8730 hc        1 MOL      0.048860
    144 H63         4.9380    2.4690   -4.6000 hc        1 MOL      0.036220
    145 H64         6.7340    2.3310   -4.3240 hc        1 MOL      0.036220
    146 H65         4.5390    0.6630   -3.0080 h1        1 MOL      0.034141
    147 H66         6.0090    0.2280   -3.8660 h1        1 MOL      0.034141
    148 N13         4.6740    2.1040    0.2800 n         1 MOL      0.042252
    149 C50         3.9230    2.3280    1.5460 c3        1 MOL     -0.191808
    150 C51         4.7060    1.6910    2.7300 c         1 MOL      0.462539
    151 O21         4.7750    2.3900    3.6950 o         1 MOL     -0.551693
    152 C52         2.4740    1.7830    1.4240 c3        1 MOL     -0.017948
    153 C53         1.6310    2.3170    0.2810 c3        1 MOL     -0.068117
    154 C54         0.3140    1.5920    0.2000 c         1 MOL      0.691129
    155 O22        -0.6870    2.0370   -0.5060 o         1 MOL     -0.735348
    156 O23         0.1280    0.5220    0.8120 o         1 MOL     -0.735348
    157 H67         4.3390    1.3590   -0.3120 hn        1 MOL      0.162136
    158 H68         3.8630    3.4010    1.6720 h1        1 MOL      0.130290
    159 H69         1.8710    1.9120    2.3180 hc        1 MOL      0.063593
    160 H70         2.6150    0.7190    1.2630 hc        1 MOL      0.063593
    161 H71         2.2080    2.2790   -0.6430 hc        1 MOL      0.023799
    162 H72         1.3990    3.3480    0.5550 hc        1 MOL      0.023799
    163 N14         5.4170    0.5660    2.5700 n         1 MOL      0.000648
    164 C55         6.4530    0.1720    3.4220 c3        1 MOL     -0.129907
    165 H73         7.3990    0.2040    2.8820 h1        1 MOL      0.046183
    166 H74         6.5000    0.8470    4.2760 h1        1 MOL      0.046183
    167 H75         6.2690   -0.8450    3.7720 h1        1 MOL      0.046183
    168 H76         5.3220    0.0880    1.6860 hn        1 MOL      0.054880
    169 Ca1        -2.1130   -0.0490   -0.3460 Ca        1 MOL      1.670642
    170 O24        -3.7970   -0.8000    1.6310 oh        1 MOL     -0.980994
    171 H77        -4.5290   -0.3190    2.0160 ho        1 MOL      0.450766
    172 H78        -3.1150   -0.7650    2.3070 ho        1 MOL      0.450766
@<TRIPOS>BOND
     1    1    2 1   
     2    1    4 1   
     3    1    5 1   
     4    1    6 1   
     5    2    3 2   
     6    2    7 1   
     7    7    8 1   
     8    7   15 1   
     9    8    9 1   
    10    8   11 1   
    11    8   16 1   
    12    9   10 2   
    13    9   19 1   
    14   11   12 1   
    15   11   17 1   
    16   11   18 1   
    17   12   13 1   
    18   12   14 1   
    19   19   20 1   
    20   19   24 1   
    21   20   21 1   
    22   20   23 1   
    23   20   25 1   
    24   21   22 2   
    25   21   29 1   
    26   23   26 1   
    27   23   27 1   
    28   23   28 1   
    29   29   30 1   
    30   29   37 1   
    31   30   31 1   
    32   30   33 1   
    33   30   38 1   
    34   31   32 2   
    35   31   41 1   
    36   33   34 1   
    37   33   39 1   
    38   33   40 1   
    39   34   35 1   
    40   34   36 1   
    41   41   42 1   
    42   41   45 1   
    43   42   43 1   
    44   42   46 1   
    45   42   47 1   
    46   43   44 2   
    47   43   48 1   
    48   48   49 1   
    49   48   56 1   
    50   49   50 1   
    51   49   52 1   
    52   49   57 1   
    53   50   51 2   
    54   50   62 1   
    55   52   53 1   
    56   52   58 1   
    57   52   59 1   
    58   53   54 1   
    59   53   55 2   
    60   54   60 1   
    61   54   61 1   
    62   62   63 1   
    63   62   66 1   
    64   63   64 1   
    65   63   67 1   
    66   63   68 1   
    67   64   65 2   
    68   64   69 1   
    69   69   70 1   
    70   69   76 1   
    71   70   71 1   
    72   70   73 1   
    73   70   77 1   
    74   71   72 2   
    75   71   83 1   
    76   73   74 1   
    77   73   75 1   
    78   73   78 1   
    79   74   80 1   
    80   74   81 1   
    81   74   82 1   
    82   75   79 1   
    83   83   84 1   
    84   83   91 1   
    85   84   85 1   
    86   84   87 1   
    87   84   92 1   
    88   85   86 2   
    89   85  102 1   
    90   87   88 1   
    91   87   89 1   
    92   87   93 1   
    93   88   90 1   
    94   88   94 1   
    95   88   95 1   
    96   89   96 1   
    97   89   97 1   
    98   89   98 1   
    99   90   99 1   
   100   90  100 1   
   101   90  101 1   
   102  102  103 1   
   103  102  110 1   
   104  103  104 1   
   105  103  106 1   
   106  103  111 1   
   107  104  105 2   
   108  104  114 1   
   109  106  107 1   
   110  106  112 1   
   111  106  113 1   
   112  107  108 1   
   113  107  109 1   
   114  114  115 1   
   115  114  125 1   
   116  115  116 1   
   117  115  118 1   
   118  115  126 1   
   119  116  117 2   
   120  116  134 1   
   121  118  119 1   
   122  118  127 1   
   123  118  128 1   
   124  119  120 ar  
   125  119  121 ar  
   126  120  122 ar  
   127  120  129 1   
   128  121  123 ar  
   129  121  130 1   
   130  122  124 ar  
   131  122  131 1   
   132  123  124 ar  
   133  123  132 1   
   134  124  133 1   
   135  134  135 1   
   136  134  140 1   
   137  135  136 1   
   138  135  138 1   
   139  135  141 1   
   140  136  137 2   
   141  136  148 1   
   142  138  139 1   
   143  138  142 1   
   144  138  143 1   
   145  139  140 1   
   146  139  144 1   
   147  139  145 1   
   148  140  146 1   
   149  140  147 1   
   150  148  149 1   
   151  148  157 1   
   152  149  150 1   
   153  149  152 1   
   154  149  158 1   
   155  150  151 2   
   156  150  163 1   
   157  152  153 1   
   158  152  159 1   
   159  152  160 1   
   160  153  154 1   
   161  153  161 1   
   162  153  162 1   
   163  154  155 1   
   164  154  156 1   
   165  163  164 1   
   166  163  168 1   
   167  164  165 1   
   168  164  166 1   
   169  164  167 1   
   170  170  171 1   
   171  170  172 1   
@<TRIPOS>SUBSTRUCTURE
     1 MOL         1 TEMP              0 ****  ****    0 ROOT
