@<TRIPOS>MOLECULE
MOL
  175   173     1     0     0
SMALL
resp


@<TRIPOS>ATOM
      1 C1          0.3620    3.7330    5.4410 c3        1 MOL     -0.327904
      2 C2         -0.2330    3.5100    4.0330 c         1 MOL      0.756716
      3 O1          0.4760    3.7380    3.0280 o         1 MOL     -0.540445
      4 H1          0.2130    2.8370    6.0440 hc        1 MOL      0.079133
      5 H2          1.4290    3.9400    5.3560 hc        1 MOL      0.079133
      6 H3         -0.1360    4.5770    5.9170 hc        1 MOL      0.079133
      7 N1         -1.5530    3.1880    3.9690 n         1 MOL     -0.804113
      8 C3         -2.1930    3.2290    2.6910 c3        1 MOL      0.418922
      9 C4         -2.2340    4.5340    1.9680 c         1 MOL      0.522836
     10 O2         -2.5340    5.5910    2.6120 o         1 MOL     -0.587997
     11 C5         -3.6540    2.7990    2.9890 c3        1 MOL     -0.325707
     12 C6         -4.3750    2.3410    1.6650 c         1 MOL      0.760178
     13 O3         -5.6350    2.4200    1.7140 o         1 MOL     -0.666191
     14 O4         -3.6940    1.9690    0.6830 o         1 MOL     -0.666191
     15 H4         -2.0730    3.0540    4.8300 hn        1 MOL      0.371751
     16 H5         -1.7660    2.4850    2.0170 h1        1 MOL     -0.034545
     17 H6         -4.1880    3.6410    3.4450 hc        1 MOL      0.049219
     18 H7         -3.6620    1.9320    3.6580 hc        1 MOL      0.049219
     19 N2         -2.0690    4.5020    0.6340 n         1 MOL     -0.493308
     20 C7         -2.4490    5.5680   -0.3020 c3        1 MOL      0.402765
     21 C8         -3.1970    5.1000   -1.5640 c         1 MOL      0.364830
     22 O5         -3.0750    5.7360   -2.6190 o         1 MOL     -0.541096
     23 C9         -1.1510    6.3340   -0.6290 c3        1 MOL     -0.380140
     24 H8         -1.9200    3.5910    0.2320 hn        1 MOL      0.316590
     25 H9         -3.2000    6.1670    0.2150 h1        1 MOL     -0.018551
     26 H10        -0.5390    5.6030   -1.1560 hc        1 MOL      0.090667
     27 H11        -1.3730    7.2160   -1.2340 hc        1 MOL      0.090667
     28 H12        -0.6680    6.6610    0.2970 hc        1 MOL      0.090667
     29 N3         -3.8380    3.9250   -1.5810 n         1 MOL     -0.247240
     30 C10        -4.7310    3.4190   -2.6730 c3        1 MOL      0.029697
     31 C11        -6.0740    2.6940   -2.3030 c         1 MOL      0.403031
     32 O6         -6.8570    2.4890   -3.2230 o         1 MOL     -0.554575
     33 C12        -3.8570    2.5870   -3.5760 c3        1 MOL     -0.258256
     34 C13        -3.2030    1.5100   -2.7700 c         1 MOL      0.849739
     35 O7         -1.9770    1.3760   -2.7230 o         1 MOL     -0.766790
     36 O8         -3.8650    0.6820   -2.1660 o         1 MOL     -0.766790
     37 H13        -3.8810    3.3970   -0.7290 hn        1 MOL      0.095670
     38 H14        -5.0700    4.2820   -3.2390 h1        1 MOL      0.086592
     39 H15        -3.1050    3.2060   -4.0510 hc        1 MOL      0.073842
     40 H16        -4.4550    2.0970   -4.3470 hc        1 MOL      0.073842
     41 N4         -6.2700    2.2540   -1.0970 n         1 MOL     -0.213918
     42 C14        -7.4350    1.4450   -0.7070 c3        1 MOL     -0.208322
     43 C15        -7.4090    0.0260   -1.2140 c         1 MOL      0.455455
     44 O9         -8.3420   -0.7560   -0.8920 o         1 MOL     -0.604694
     45 H17        -5.6000    2.2420   -0.3360 hn        1 MOL      0.179916
     46 H18        -8.3050    2.0170   -1.0190 h1        1 MOL      0.134462
     47 H19        -7.5840    1.4120    0.3700 h1        1 MOL      0.134462
     48 N5         -6.3740   -0.5430   -1.9460 n         1 MOL     -0.208253
     49 C16        -6.2960   -1.9090   -2.4280 c3        1 MOL      0.045629
     50 C17        -6.5160   -3.0380   -1.3350 c         1 MOL      0.510504
     51 O10        -7.0830   -4.0850   -1.6940 o         1 MOL     -0.593799
     52 C18        -5.0640   -2.1020   -3.3590 c3        1 MOL     -0.281933
     53 C19        -3.6850   -2.0270   -2.6500 c         1 MOL      0.655974
     54 N6         -2.6280   -1.9820   -3.4130 n         1 MOL     -0.620467
     55 O11        -3.5700   -2.0020   -1.4140 o         1 MOL     -0.625966
     56 H20        -5.6230    0.0840   -2.1640 hn        1 MOL      0.230962
     57 H21        -7.2530   -1.9060   -2.9600 h1        1 MOL      0.052048
     58 H22        -5.0890   -1.3270   -4.1330 hc        1 MOL      0.076644
     59 H23        -5.1030   -3.0640   -3.8540 hc        1 MOL      0.076644
     60 H24        -2.7570   -2.0240   -4.4160 hn        1 MOL      0.321227
     61 H25        -1.7200   -1.8910   -2.9830 hn        1 MOL      0.321227
     62 N7         -6.0350   -2.7340   -0.1580 n         1 MOL     -0.048242
     63 C20        -6.1690   -3.5490    1.0620 c3        1 MOL     -0.197950
     64 C21        -4.9070   -4.2320    1.6130 c         1 MOL      0.529525
     65 O12        -4.9990   -5.0690    2.5090 o         1 MOL     -0.598416
     66 H26        -5.4910   -1.8970    0.0040 hn        1 MOL      0.152737
     67 H27        -6.9430   -4.2920    0.8660 h1        1 MOL      0.084496
     68 H28        -6.5880   -2.8200    1.7530 h1        1 MOL      0.084496
     69 N8         -3.7330   -3.9590    1.0720 n         1 MOL     -0.165838
     70 C22        -2.4780   -4.6190    1.3120 c3        1 MOL     -0.086037
     71 C23        -1.5060   -3.4980    1.6040 c         1 MOL      0.417580
     72 O13        -1.6050   -2.4020    1.0040 o         1 MOL     -0.374423
     73 C24        -1.9430   -5.3800    0.0340 c3        1 MOL      0.457716
     74 C25        -2.6840   -6.6890    0.0650 c3        1 MOL     -0.744021
     75 O14        -2.3310   -4.6150   -1.0940 oh        1 MOL     -0.514954
     76 H29        -3.7790   -3.3630    0.2600 hn        1 MOL      0.114996
     77 H30        -2.4530   -5.2020    2.2400 h1        1 MOL      0.088867
     78 H31        -0.8580   -5.4430   -0.0160 h1        1 MOL      0.007393
     79 H32        -1.8950   -3.7680   -0.9710 ho        1 MOL      0.275163
     80 H33        -2.5100   -7.2060    1.0010 hc        1 MOL      0.197948
     81 H34        -3.7600   -6.5210   -0.0510 hc        1 MOL      0.197948
     82 H35        -2.2500   -7.1510   -0.8170 hc        1 MOL      0.197948
     83 N9         -0.4500   -3.8190    2.3480 n         1 MOL     -0.546061
     84 C26         0.8090   -2.9720    2.3030 c3        1 MOL      0.099256
     85 C27         1.5070   -3.2580    1.0390 c         1 MOL      0.503153
     86 O15         1.8370   -4.3850    0.6760 o         1 MOL     -0.598449
     87 C28         1.6030   -3.0940    3.6440 c3        1 MOL      0.163599
     88 C29         0.9750   -2.1210    4.6920 c3        1 MOL      0.032743
     89 C30         3.0860   -2.6310    3.3610 c3        1 MOL     -0.433945
     90 C31         1.3790   -2.6330    6.1060 c3        1 MOL      0.008449
     91 H36        -0.3850   -4.8040    2.5430 hn        1 MOL      0.273741
     92 H37         0.4250   -1.9480    2.2260 h1        1 MOL      0.001342
     93 H38         1.6320   -4.1510    3.9010 hc        1 MOL      0.027339
     94 H39        -0.1070   -2.1630    4.5610 hc        1 MOL     -0.017282
     95 H40         1.2210   -1.0590    4.5730 hc        1 MOL     -0.017282
     96 H41         3.5430   -3.4180    2.7680 hc        1 MOL      0.096338
     97 H42         3.0210   -1.7920    2.6830 hc        1 MOL      0.096338
     98 H43         3.6090   -2.4920    4.3130 hc        1 MOL      0.096338
     99 H44         2.3880   -2.3820    6.4410 hc        1 MOL     -0.014584
    100 H45         0.6480   -2.3050    6.8400 hc        1 MOL     -0.014584
    101 H46         1.3320   -3.7130    6.0300 hc        1 MOL     -0.014584
    102 N10         1.8560   -2.1890    0.3010 n         1 MOL     -0.257098
    103 C32         2.6120   -2.2300   -0.9580 c3        1 MOL      0.138577
    104 C33         4.0740   -1.6850   -0.6960 c         1 MOL      0.400504
    105 O16         4.3350   -1.1660    0.3860 o         1 MOL     -0.377016
    106 C34         1.9690   -1.4140   -2.0540 c3        1 MOL     -0.459075
    107 C35         0.5050   -1.6570   -2.3350 c         1 MOL      0.851326
    108 O17         0.2140   -2.2410   -3.4150 o         1 MOL     -0.706228
    109 O18        -0.3960   -1.2600   -1.6140 o         1 MOL     -0.706228
    110 H47         1.4890   -1.3020    0.6370 hn        1 MOL      0.262574
    111 H48         2.7640   -3.2250   -1.3740 h1        1 MOL      0.075826
    112 H49         2.5340   -1.7750   -2.9110 hc        1 MOL      0.099419
    113 H50         2.2050   -0.3600   -1.9390 hc        1 MOL      0.099419
    114 N11         4.9940   -1.7450   -1.5960 n         1 MOL     -0.578167
    115 C36         6.4010   -1.4200   -1.3060 c3        1 MOL      0.261155
    116 C37         6.7950    0.0250   -1.2510 c         1 MOL      0.410065
    117 O19         7.4410    0.2970   -0.2470 o         1 MOL     -0.494350
    118 C38         7.3520   -2.2320   -2.2340 c3        1 MOL     -0.113734
    119 C39         8.7720   -1.8420   -2.1370 ca        1 MOL     -0.025993
    120 C40         9.3480   -0.9420   -3.0570 ca        1 MOL     -0.077234
    121 C41         9.5070   -2.2440   -1.0210 ca        1 MOL     -0.077234
    122 C42        10.7010   -0.5770   -2.9280 ca        1 MOL     -0.179731
    123 C43        10.7940   -1.8730   -0.9250 ca        1 MOL     -0.179731
    124 C44        11.4050   -0.9480   -1.8030 ca        1 MOL     -0.012474
    125 H51         4.7760   -2.1420   -2.5090 hn        1 MOL      0.321219
    126 H52         6.6330   -1.7230   -0.2890 h1        1 MOL      0.082742
    127 H53         7.0610   -2.0340   -3.2730 hc        1 MOL      0.039032
    128 H54         7.2040   -3.2990   -2.0840 hc        1 MOL      0.039032
    129 H55         8.8280   -0.4920   -3.8900 ha        1 MOL      0.108484
    130 H56         9.0700   -2.9670   -0.3380 ha        1 MOL      0.108484
    131 H57        11.1860    0.0040   -3.7000 ha        1 MOL      0.113088
    132 H58        11.3080   -2.3120   -0.0790 ha        1 MOL      0.113088
    133 H59        12.4380   -0.6400   -1.7860 ha        1 MOL      0.077331
    134 N12         6.2660    0.9790   -2.0090 n         1 MOL     -0.189121
    135 C45         6.3490    2.4180   -1.6820 c3        1 MOL      0.240891
    136 C46         5.7240    2.7640   -0.2620 c         1 MOL      0.260316
    137 O20         6.2250    3.6340    0.4700 o         1 MOL     -0.498114
    138 C47         5.6930    3.2100   -2.8110 c3        1 MOL     -0.107716
    139 C48         5.8350    2.2390   -3.9960 c3        1 MOL      0.133024
    140 C49         5.7960    0.8550   -3.3600 c3        1 MOL     -0.047313
    141 H60         7.4080    2.6760   -1.5940 h1        1 MOL      0.004486
    142 H61         4.6330    3.3200   -2.5510 hc        1 MOL      0.040083
    143 H62         6.2380    4.1350   -2.9810 hc        1 MOL      0.040083
    144 H63         5.1090    2.3300   -4.8100 hc        1 MOL     -0.016484
    145 H64         6.8000    2.3940   -4.4770 hc        1 MOL     -0.016484
    146 H65         4.7560    0.5140   -3.3520 h1        1 MOL      0.026469
    147 H66         6.3880    0.2240   -4.0210 h1        1 MOL      0.026469
    148 N13         4.6700    2.1290    0.2180 n         1 MOL     -0.237171
    149 C50         4.2080    2.3280    1.6180 c3        1 MOL     -0.000349
    150 C51         5.0730    1.6980    2.6740 c         1 MOL      0.416294
    151 O21         5.3310    2.2080    3.7540 o         1 MOL     -0.568005
    152 C52         2.7570    1.8140    1.7270 c3        1 MOL     -0.034505
    153 C53         1.8200    2.1130    0.5410 c3        1 MOL     -0.025203
    154 C54         0.4260    1.5010    0.6790 c         1 MOL      0.557002
    155 O22        -0.4800    2.0600    0.0030 o         1 MOL     -0.680798
    156 O23         0.2630    0.3450    1.2020 o         1 MOL     -0.680798
    157 H67         4.4430    1.2410   -0.1960 hn        1 MOL      0.210271
    158 H68         4.1830    3.3670    1.9390 h1        1 MOL      0.113282
    159 H69         2.3030    2.3780    2.5370 hc        1 MOL      0.010031
    160 H70         2.8060    0.7330    1.8770 hc        1 MOL      0.010031
    161 H71         2.2020    1.8740   -0.4510 hc        1 MOL      0.039816
    162 H72         1.5900    3.1750    0.4260 hc        1 MOL      0.039816
    163 N14         5.7540    0.6160    2.3670 n         1 MOL      0.057848
    164 C55         6.7610    0.0170    3.1600 c3        1 MOL     -0.293477
    165 H73         6.3050   -0.4520    4.0320 h1        1 MOL      0.095905
    166 H74         7.2840   -0.7380    2.5750 h1        1 MOL      0.095905
    167 H75         7.4680    0.7790    3.4870 h1        1 MOL      0.095905
    168 H76         5.4790    0.1440    1.5190 hn        1 MOL      0.024770
    169 Ca1        -2.1310    0.0580   -0.2630 Ca        1 MOL      1.711377
    170 O24        -1.9300   -0.3390    2.9100 oh        1 MOL     -0.812997
    171 H77        -1.0060   -0.0980    2.9060 ho        1 MOL      0.400696
    172 H78        -2.2290   -0.1590    3.8030 ho        1 MOL      0.400696
    173 O25        -4.2090   -0.9490    1.3390 oh        1 MOL     -0.812997
    174 H79        -4.9870   -0.5360    1.7150 ho        1 MOL      0.400696
    175 H80        -3.5930   -1.0130    2.0650 ho        1 MOL      0.400696
@<TRIPOS>BOND
     1    1    2 1   
     2    1    4 1   
     3    1    5 1   
     4    1    6 1   
     5    2    3 2   
     6    2    7 1   
     7    7    8 1   
     8    7   15 1   
     9    8    9 1   
    10    8   11 1   
    11    8   16 1   
    12    9   10 2   
    13    9   19 1   
    14   11   12 1   
    15   11   17 1   
    16   11   18 1   
    17   12   13 1   
    18   12   14 1   
    19   19   20 1   
    20   19   24 1   
    21   20   21 1   
    22   20   23 1   
    23   20   25 1   
    24   21   22 2   
    25   21   29 1   
    26   23   26 1   
    27   23   27 1   
    28   23   28 1   
    29   29   30 1   
    30   29   37 1   
    31   30   31 1   
    32   30   33 1   
    33   30   38 1   
    34   31   32 2   
    35   31   41 1   
    36   33   34 1   
    37   33   39 1   
    38   33   40 1   
    39   34   35 1   
    40   34   36 1   
    41   41   42 1   
    42   41   45 1   
    43   42   43 1   
    44   42   46 1   
    45   42   47 1   
    46   43   44 2   
    47   43   48 1   
    48   48   49 1   
    49   48   56 1   
    50   49   50 1   
    51   49   52 1   
    52   49   57 1   
    53   50   51 2   
    54   50   62 1   
    55   52   53 1   
    56   52   58 1   
    57   52   59 1   
    58   53   54 1   
    59   53   55 2   
    60   54   60 1   
    61   54   61 1   
    62   62   63 1   
    63   62   66 1   
    64   63   64 1   
    65   63   67 1   
    66   63   68 1   
    67   64   65 2   
    68   64   69 1   
    69   69   70 1   
    70   69   76 1   
    71   70   71 1   
    72   70   73 1   
    73   70   77 1   
    74   71   72 2   
    75   71   83 1   
    76   73   74 1   
    77   73   75 1   
    78   73   78 1   
    79   74   80 1   
    80   74   81 1   
    81   74   82 1   
    82   75   79 1   
    83   83   84 1   
    84   83   91 1   
    85   84   85 1   
    86   84   87 1   
    87   84   92 1   
    88   85   86 2   
    89   85  102 1   
    90   87   88 1   
    91   87   89 1   
    92   87   93 1   
    93   88   90 1   
    94   88   94 1   
    95   88   95 1   
    96   89   96 1   
    97   89   97 1   
    98   89   98 1   
    99   90   99 1   
   100   90  100 1   
   101   90  101 1   
   102  102  103 1   
   103  102  110 1   
   104  103  104 1   
   105  103  106 1   
   106  103  111 1   
   107  104  105 2   
   108  104  114 1   
   109  106  107 1   
   110  106  112 1   
   111  106  113 1   
   112  107  108 1   
   113  107  109 1   
   114  114  115 1   
   115  114  125 1   
   116  115  116 1   
   117  115  118 1   
   118  115  126 1   
   119  116  117 2   
   120  116  134 1   
   121  118  119 1   
   122  118  127 1   
   123  118  128 1   
   124  119  120 ar  
   125  119  121 ar  
   126  120  122 ar  
   127  120  129 1   
   128  121  123 ar  
   129  121  130 1   
   130  122  124 ar  
   131  122  131 1   
   132  123  124 ar  
   133  123  132 1   
   134  124  133 1   
   135  134  135 1   
   136  134  140 1   
   137  135  136 1   
   138  135  138 1   
   139  135  141 1   
   140  136  137 2   
   141  136  148 1   
   142  138  139 1   
   143  138  142 1   
   144  138  143 1   
   145  139  140 1   
   146  139  144 1   
   147  139  145 1   
   148  140  146 1   
   149  140  147 1   
   150  148  149 1   
   151  148  157 1   
   152  149  150 1   
   153  149  152 1   
   154  149  158 1   
   155  150  151 2   
   156  150  163 1   
   157  152  153 1   
   158  152  159 1   
   159  152  160 1   
   160  153  154 1   
   161  153  161 1   
   162  153  162 1   
   163  154  155 1   
   164  154  156 1   
   165  163  164 1   
   166  163  168 1   
   167  164  165 1   
   168  164  166 1   
   169  164  167 1   
   170  170  171 1   
   171  170  172 1   
   172  173  174 1   
   173  173  175 1   
@<TRIPOS>SUBSTRUCTURE
     1 MOL         1 TEMP              0 ****  ****    0 ROOT
