@<TRIPOS>MOLECULE
MOL
  175   173     1     0     0
SMALL
resp


@<TRIPOS>ATOM
      1 C1         -0.6100   -3.5120    5.7360 c3        1 MOL     -0.371055
      2 C2          0.0680   -3.7050    4.3260 c         1 MOL      0.649269
      3 O1         -0.5890   -4.1240    3.3420 o         1 MOL     -0.529161
      4 H1          0.0320   -2.8960    6.3660 hc        1 MOL      0.096451
      5 H2         -1.5750   -3.0190    5.6120 hc        1 MOL      0.096451
      6 H3         -0.7550   -4.4840    6.2060 hc        1 MOL      0.096451
      7 N1          1.3820   -3.3930    4.1960 n         1 MOL     -0.608650
      8 C3          2.0550   -3.1800    2.8820 c3        1 MOL      0.017697
      9 C4          2.1320   -4.4720    2.0050 c         1 MOL      0.679715
     10 O2          2.3430   -5.5900    2.4410 o         1 MOL     -0.589070
     11 C5          3.4940   -2.7460    3.1150 c3        1 MOL     -0.284165
     12 C6          4.2100   -2.3090    1.8300 c         1 MOL      0.717597
     13 O3          5.3890   -1.9770    1.8720 o         1 MOL     -0.654172
     14 O4          3.5510   -2.0520    0.8320 o         1 MOL     -0.654172
     15 H4          1.8460   -3.1420    5.0640 hn        1 MOL      0.337240
     16 H5          1.4910   -2.4770    2.2680 h1        1 MOL      0.149951
     17 H6          4.0710   -3.4520    3.7110 hc        1 MOL      0.067075
     18 H7          3.4010   -1.8710    3.7670 hc        1 MOL      0.067075
     19 N2          2.1590   -4.2970    0.6500 n         1 MOL     -0.606533
     20 C7          2.2720   -5.3950   -0.3020 c3        1 MOL      0.337521
     21 C8          3.4230   -5.1900   -1.3410 c         1 MOL      0.498061
     22 O5          3.6860   -6.1000   -2.0790 o         1 MOL     -0.564363
     23 C9          0.8920   -5.5630   -0.9300 c3        1 MOL     -0.297770
     24 H8          2.0300   -3.3430    0.3610 hn        1 MOL      0.360382
     25 H9          2.5710   -6.3270    0.1910 h1        1 MOL     -0.002438
     26 H10         0.8710   -6.3980   -1.6360 hc        1 MOL      0.068122
     27 H11         0.1510   -5.6150   -0.1270 hc        1 MOL      0.068122
     28 H12         0.6960   -4.6850   -1.5440 hc        1 MOL      0.068122
     29 N3          4.0110   -3.9630   -1.3720 n         1 MOL     -0.451628
     30 C10         4.8550   -3.5530   -2.4800 c3        1 MOL      0.205959
     31 C11         6.1200   -2.8010   -2.0660 c         1 MOL      0.328147
     32 O6          6.9890   -2.7380   -2.9030 o         1 MOL     -0.569623
     33 C12         4.0690   -2.6330   -3.4290 c3        1 MOL     -0.156717
     34 C13         3.3020   -1.5410   -2.7560 c         1 MOL      0.710699
     35 O7          3.8420   -0.8760   -1.8630 o         1 MOL     -0.704037
     36 O8          2.1170   -1.4100   -3.0090 o         1 MOL     -0.704037
     37 H13         3.8510   -3.2610   -0.6650 hn        1 MOL      0.197445
     38 H14         5.1280   -4.4550   -3.0240 h1        1 MOL      0.053202
     39 H15         3.4720   -3.3590   -3.9880 hc        1 MOL      0.032488
     40 H16         4.6610   -2.2900   -4.2660 hc        1 MOL      0.032488
     41 N4          6.2050   -2.1640   -0.9070 n         1 MOL     -0.084404
     42 C14         7.4490   -1.4250   -0.5220 c3        1 MOL     -0.362323
     43 C15         7.3940    0.0660   -0.9520 c         1 MOL      0.567007
     44 O9          8.3320    0.7340   -0.5310 o         1 MOL     -0.620244
     45 H17         5.4390   -2.0370   -0.2560 hn        1 MOL      0.081172
     46 H18         8.3400   -1.9450   -0.8790 h1        1 MOL      0.164592
     47 H19         7.4740   -1.3590    0.5630 h1        1 MOL      0.164592
     48 N5          6.3490    0.5870   -1.5840 n         1 MOL     -0.314247
     49 C16         6.2560    1.9560   -2.1900 c3        1 MOL     -0.117188
     50 C17         6.2770    3.1830   -1.2770 c         1 MOL      0.525826
     51 O10         6.1270    4.3250   -1.6690 o         1 MOL     -0.539193
     52 C18         5.0980    2.0210   -3.1670 c3        1 MOL     -0.067592
     53 C19         3.6620    2.0280   -2.5500 c         1 MOL      0.333857
     54 N6          2.6990    1.9850   -3.4160 n         1 MOL     -0.506993
     55 O11         3.3590    1.9800   -1.3650 o         1 MOL     -0.212023
     56 H20         5.6360   -0.0990   -1.7680 hn        1 MOL      0.301612
     57 H21         7.1950    2.0240   -2.7430 h1        1 MOL      0.114540
     58 H22         5.0840    1.0900   -3.7250 hc        1 MOL      0.041556
     59 H23         5.1970    2.8860   -3.8270 hc        1 MOL      0.041556
     60 H24         2.8670    2.0630   -4.4090 hn        1 MOL      0.286251
     61 H25         1.7180    2.0520   -3.1590 hn        1 MOL      0.286251
     62 N7          6.1750    2.9570    0.0620 n         1 MOL     -0.286318
     63 C20         6.2440    3.9010    1.2500 c3        1 MOL     -0.237506
     64 C21         4.9280    4.5710    1.5980 c         1 MOL      0.576285
     65 O12         4.9520    5.5610    2.2960 o         1 MOL     -0.584369
     66 H26         5.8590    2.0510    0.3690 hn        1 MOL      0.264100
     67 H27         7.0330    4.6490    1.1780 h1        1 MOL      0.117251
     68 H28         6.5600    3.2680    2.0860 h1        1 MOL      0.117251
     69 N8          3.8350    4.0750    1.0120 n         1 MOL     -0.256680
     70 C22         2.4670    4.6710    1.1670 c3        1 MOL     -0.131121
     71 C23         1.5220    3.5770    1.4480 c         1 MOL      0.599309
     72 O13         1.7660    2.4540    1.0320 o         1 MOL     -0.613664
     73 C24         2.0340    5.5100   -0.0630 c3        1 MOL      0.665244
     74 C25         2.9880    6.6640   -0.5800 c3        1 MOL     -0.514801
     75 O14         1.8440    4.7280   -1.2100 oh        1 MOL     -0.619673
     76 H29         3.9640    3.3290    0.3340 hn        1 MOL      0.094742
     77 H30         2.3690    5.4340    1.9450 h1        1 MOL      0.039329
     78 H31         1.0890    6.0050    0.1720 h1        1 MOL     -0.097581
     79 H32         1.8920    3.8160   -0.9020 ho        1 MOL      0.305949
     80 H33         3.8720    6.1680   -0.9730 hc        1 MOL      0.125025
     81 H34         2.4930    7.2390   -1.3610 hc        1 MOL      0.125025
     82 H35         3.2440    7.3440    0.2400 hc        1 MOL      0.125025
     83 N9          0.3420    3.8540    1.9710 n         1 MOL     -0.465126
     84 C26        -0.7410    2.9230    2.0620 c3        1 MOL     -0.203017
     85 C27        -1.5230    3.0480    0.7630 c         1 MOL      0.612322
     86 O15        -1.9820    4.1380    0.3640 o         1 MOL     -0.588340
     87 C28        -1.6530    3.2890    3.3450 c3        1 MOL      0.249650
     88 C29        -0.8930    3.2280    4.6780 c3        1 MOL      0.117666
     89 C30        -3.0260    2.4840    3.3550 c3        1 MOL     -0.431097
     90 C31        -1.8080    3.6120    5.8340 c3        1 MOL     -0.030363
     91 H36         0.0830    4.7590    2.3260 hn        1 MOL      0.292282
     92 H37        -0.3980    1.8870    2.0350 h1        1 MOL      0.096421
     93 H38        -1.9010    4.3470    3.2680 hc        1 MOL     -0.013821
     94 H39        -0.0750    3.9420    4.6760 hc        1 MOL     -0.033837
     95 H40        -0.5780    2.2070    4.9150 hc        1 MOL     -0.033837
     96 H41        -2.8200    1.4080    3.4490 hc        1 MOL      0.098188
     97 H42        -3.6520    2.6730    4.2290 hc        1 MOL      0.098188
     98 H43        -3.5880    2.6640    2.4420 hc        1 MOL      0.098188
     99 H44        -2.5850    2.9060    6.1430 hc        1 MOL     -0.005069
    100 H45        -1.1470    3.6010    6.6980 hc        1 MOL     -0.005069
    101 H46        -2.1840    4.6310    5.7300 hc        1 MOL     -0.005069
    102 N10        -1.8370    1.8910    0.0480 n         1 MOL     -0.404214
    103 C32        -2.6440    1.8810   -1.1730 c3        1 MOL      0.215133
    104 C33        -4.0840    1.3980   -0.9240 c         1 MOL      0.500477
    105 O16        -4.3510    0.7610    0.1020 o         1 MOL     -0.449014
    106 C34        -1.9310    0.9950   -2.1900 c3        1 MOL     -0.368679
    107 C35        -0.4420    1.3330   -2.5340 c         1 MOL      0.795509
    108 O17        -0.3000    1.7820   -3.6360 o         1 MOL     -0.671419
    109 O18         0.5600    1.1910   -1.7780 o         1 MOL     -0.671419
    110 H47        -1.5820    1.0290    0.5020 hn        1 MOL      0.261767
    111 H48        -2.8160    2.8710   -1.5980 h1        1 MOL      0.048357
    112 H49        -2.4840    1.1130   -3.1180 hc        1 MOL      0.068597
    113 H50        -1.9630   -0.0400   -1.8450 hc        1 MOL      0.068597
    114 N11        -5.0360    1.6130   -1.8620 n         1 MOL     -0.732548
    115 C36        -6.4160    1.2410   -1.5410 c3        1 MOL      0.407624
    116 C37        -6.7240   -0.2560   -1.4060 c         1 MOL      0.257434
    117 O19        -7.4030   -0.5040   -0.3880 o         1 MOL     -0.468654
    118 C38        -7.4440    1.7760   -2.6030 c3        1 MOL     -0.293283
    119 C39        -8.9390    1.6620   -2.1320 ca        1 MOL      0.061604
    120 C40        -9.8740    0.9340   -2.8660 ca        1 MOL     -0.067245
    121 C41        -9.3240    2.2750   -1.0100 ca        1 MOL     -0.067245
    122 C42       -11.1830    0.7620   -2.4260 ca        1 MOL     -0.200309
    123 C43       -10.7100    2.2680   -0.6030 ca        1 MOL     -0.200309
    124 C44       -11.6620    1.4120   -1.2320 ca        1 MOL     -0.060151
    125 H51        -4.7960    2.0200   -2.7510 hn        1 MOL      0.370027
    126 H52        -6.6090    1.7380   -0.5950 h1        1 MOL      0.098893
    127 H53        -7.2890    1.2550   -3.5390 hc        1 MOL      0.081639
    128 H54        -7.2660    2.8440   -2.7260 hc        1 MOL      0.081639
    129 H55        -9.6110    0.5260   -3.8280 ha        1 MOL      0.087405
    130 H56        -8.6180    2.8150   -0.3980 ha        1 MOL      0.087405
    131 H57       -11.7470    0.1420   -3.1170 ha        1 MOL      0.124002
    132 H58       -10.9000    2.6680    0.3780 ha        1 MOL      0.124002
    133 H59       -12.6550    1.1980   -0.8740 ha        1 MOL      0.108975
    134 N12        -6.0630   -1.2000   -2.1300 n         1 MOL     -0.075944
    135 C45        -6.1550   -2.6150   -1.7160 c3        1 MOL      0.010911
    136 C46        -5.6250   -2.8920   -0.2750 c         1 MOL      0.274026
    137 O20        -5.9860   -3.8750    0.3450 o         1 MOL     -0.496897
    138 C47        -5.2590   -3.4240   -2.7180 c3        1 MOL     -0.139105
    139 C48        -4.4220   -2.3890   -3.4720 c3        1 MOL     -0.040027
    140 C49        -5.3780   -1.1590   -3.4270 c3        1 MOL      0.007470
    141 H60        -7.1820   -2.9910   -1.7210 h1        1 MOL      0.078808
    142 H61        -4.5690   -4.1360   -2.2620 hc        1 MOL      0.063927
    143 H62        -5.9450   -3.9200   -3.3950 hc        1 MOL      0.063927
    144 H63        -3.5260   -2.1820   -2.8950 hc        1 MOL      0.049008
    145 H64        -4.2520   -2.6340   -4.5160 hc        1 MOL      0.049008
    146 H65        -4.8190   -0.2500   -3.6700 h1        1 MOL      0.029895
    147 H66        -6.1540   -1.1760   -4.1950 h1        1 MOL      0.029895
    148 N13        -4.7940   -1.9770    0.2820 n         1 MOL      0.039083
    149 C50        -4.1690   -2.1300    1.5970 c3        1 MOL     -0.219734
    150 C51        -4.9850   -1.4570    2.7230 c         1 MOL      0.489163
    151 O21        -5.0300   -1.9200    3.8620 o         1 MOL     -0.557571
    152 C52        -2.7170   -1.6190    1.5280 c3        1 MOL      0.070401
    153 C53        -1.8120   -2.3070    0.5330 c3        1 MOL     -0.133208
    154 C54        -0.4610   -1.5560    0.5390 c         1 MOL      0.470538
    155 O22         0.4430   -1.9370   -0.2240 o         1 MOL     -0.645533
    156 O23        -0.3060   -0.4550    1.1260 o         1 MOL     -0.645533
    157 H67        -4.4490   -1.1960   -0.2580 hn        1 MOL      0.156554
    158 H68        -4.1160   -3.1960    1.7650 h1        1 MOL      0.124038
    159 H69        -2.3290   -1.9050    2.5090 hc        1 MOL      0.007342
    160 H70        -2.7260   -0.5400    1.3890 hc        1 MOL      0.007342
    161 H71        -2.3250   -2.1610   -0.4220 hc        1 MOL      0.085115
    162 H72        -1.6910   -3.3850    0.6240 hc        1 MOL      0.085115
    163 N14        -5.7990   -0.4590    2.3340 n         1 MOL     -0.088776
    164 C55        -6.9300    0.1300    3.0570 c3        1 MOL     -0.173427
    165 H73        -7.8520   -0.0640    2.5080 h1        1 MOL      0.071677
    166 H74        -6.9990   -0.3140    4.0490 h1        1 MOL      0.071677
    167 H75        -6.7820    1.2060    3.1490 h1        1 MOL      0.071677
    168 H76        -5.7480   -0.1200    1.3910 hn        1 MOL      0.071557
    169 Ca1         2.1720   -0.0480   -0.1860 Ca        1 MOL      1.647166
    170 O24         4.5860    0.4500    0.9720 oh        1 MOL     -0.755701
    171 H77         4.7090    0.7670    1.8620 ho        1 MOL      0.368354
    172 H78         4.9380   -0.4400    0.9760 ho        1 MOL      0.368354
    173 O25         1.6380   -0.0930    2.5160 oh        1 MOL     -0.755701
    174 H79         0.8020   -0.3760    2.1430 ho        1 MOL      0.368354
    175 H80         1.4960   -0.1080    3.4600 ho        1 MOL      0.368354
@<TRIPOS>BOND
     1    1    2 1   
     2    1    4 1   
     3    1    5 1   
     4    1    6 1   
     5    2    3 2   
     6    2    7 1   
     7    7    8 1   
     8    7   15 1   
     9    8    9 1   
    10    8   11 1   
    11    8   16 1   
    12    9   10 2   
    13    9   19 1   
    14   11   12 1   
    15   11   17 1   
    16   11   18 1   
    17   12   13 1   
    18   12   14 1   
    19   19   20 1   
    20   19   24 1   
    21   20   21 1   
    22   20   23 1   
    23   20   25 1   
    24   21   22 2   
    25   21   29 1   
    26   23   26 1   
    27   23   27 1   
    28   23   28 1   
    29   29   30 1   
    30   29   37 1   
    31   30   31 1   
    32   30   33 1   
    33   30   38 1   
    34   31   32 2   
    35   31   41 1   
    36   33   34 1   
    37   33   39 1   
    38   33   40 1   
    39   34   35 1   
    40   34   36 1   
    41   41   42 1   
    42   41   45 1   
    43   42   43 1   
    44   42   46 1   
    45   42   47 1   
    46   43   44 2   
    47   43   48 1   
    48   48   49 1   
    49   48   56 1   
    50   49   50 1   
    51   49   52 1   
    52   49   57 1   
    53   50   51 2   
    54   50   62 1   
    55   52   53 1   
    56   52   58 1   
    57   52   59 1   
    58   53   54 1   
    59   53   55 2   
    60   54   60 1   
    61   54   61 1   
    62   62   63 1   
    63   62   66 1   
    64   63   64 1   
    65   63   67 1   
    66   63   68 1   
    67   64   65 2   
    68   64   69 1   
    69   69   70 1   
    70   69   76 1   
    71   70   71 1   
    72   70   73 1   
    73   70   77 1   
    74   71   72 2   
    75   71   83 1   
    76   73   74 1   
    77   73   75 1   
    78   73   78 1   
    79   74   80 1   
    80   74   81 1   
    81   74   82 1   
    82   75   79 1   
    83   83   84 1   
    84   83   91 1   
    85   84   85 1   
    86   84   87 1   
    87   84   92 1   
    88   85   86 2   
    89   85  102 1   
    90   87   88 1   
    91   87   89 1   
    92   87   93 1   
    93   88   90 1   
    94   88   94 1   
    95   88   95 1   
    96   89   96 1   
    97   89   97 1   
    98   89   98 1   
    99   90   99 1   
   100   90  100 1   
   101   90  101 1   
   102  102  103 1   
   103  102  110 1   
   104  103  104 1   
   105  103  106 1   
   106  103  111 1   
   107  104  105 2   
   108  104  114 1   
   109  106  107 1   
   110  106  112 1   
   111  106  113 1   
   112  107  108 1   
   113  107  109 1   
   114  114  115 1   
   115  114  125 1   
   116  115  116 1   
   117  115  118 1   
   118  115  126 1   
   119  116  117 2   
   120  116  134 1   
   121  118  119 1   
   122  118  127 1   
   123  118  128 1   
   124  119  120 ar  
   125  119  121 ar  
   126  120  122 ar  
   127  120  129 1   
   128  121  123 ar  
   129  121  130 1   
   130  122  124 ar  
   131  122  131 1   
   132  123  124 ar  
   133  123  132 1   
   134  124  133 1   
   135  134  135 1   
   136  134  140 1   
   137  135  136 1   
   138  135  138 1   
   139  135  141 1   
   140  136  137 2   
   141  136  148 1   
   142  138  139 1   
   143  138  142 1   
   144  138  143 1   
   145  139  140 1   
   146  139  144 1   
   147  139  145 1   
   148  140  146 1   
   149  140  147 1   
   150  148  149 1   
   151  148  157 1   
   152  149  150 1   
   153  149  152 1   
   154  149  158 1   
   155  150  151 2   
   156  150  163 1   
   157  152  153 1   
   158  152  159 1   
   159  152  160 1   
   160  153  154 1   
   161  153  161 1   
   162  153  162 1   
   163  154  155 1   
   164  154  156 1   
   165  163  164 1   
   166  163  168 1   
   167  164  165 1   
   168  164  166 1   
   169  164  167 1   
   170  170  171 1   
   171  170  172 1   
   172  173  174 1   
   173  173  175 1   
@<TRIPOS>SUBSTRUCTURE
     1 MOL         1 TEMP              0 ****  ****    0 ROOT
