@<TRIPOS>MOLECULE
MOL
  189   185     1     0     0
SMALL
resp


@<TRIPOS>ATOM
      1 C1          0.8020   -4.4550    5.9240 c3        1 MOL     -0.503242
      2 C2          1.0670   -3.7950    4.6280 c         1 MOL      0.809406
      3 O1          1.1910   -2.5650    4.5770 o         1 MOL     -0.621477
      4 H1          1.7270   -4.8880    6.3070 hc        1 MOL      0.126267
      5 H2          0.4230   -3.7220    6.6360 hc        1 MOL      0.126267
      6 H3          0.0630   -5.2440    5.7850 hc        1 MOL      0.126267
      7 N1          1.3830   -4.6020    3.5990 n         1 MOL     -0.734569
      8 C3          1.9360   -4.0750    2.3190 c3        1 MOL      0.390584
      9 C4          1.8380   -5.1100    1.1550 c         1 MOL      0.357572
     10 O2          2.2700   -6.2320    1.2890 o         1 MOL     -0.585287
     11 C5          3.4310   -3.6740    2.4790 c3        1 MOL     -0.285002
     12 C6          4.0930   -3.2830    1.2120 c         1 MOL      0.717160
     13 O3          5.2160   -3.6820    0.9510 o         1 MOL     -0.650949
     14 O4          3.3900   -2.5260    0.4830 o         1 MOL     -0.650949
     15 H4          1.3360   -5.5980    3.6880 hn        1 MOL      0.337808
     16 H5          1.3690   -3.1650    2.1100 h1        1 MOL      0.043774
     17 H6          3.8920   -4.5910    2.8490 hc        1 MOL      0.053098
     18 H7          3.5680   -2.8960    3.2260 hc        1 MOL      0.053098
     19 N2          1.3200   -4.7520    0.0160 n         1 MOL      0.189994
     20 C7          1.1740   -5.6450   -1.1790 c3        1 MOL     -0.131065
     21 C8          2.0240   -5.1950   -2.3330 c         1 MOL      0.490474
     22 O5          2.1450   -5.9050   -3.3090 o         1 MOL     -0.588943
     23 C9         -0.2830   -5.9170   -1.5980 c3        1 MOL      0.098991
     24 C10        -0.9870   -4.6170   -2.0440 c3        1 MOL      0.230710
     25 C11        -1.0910   -6.5770   -0.4510 c3        1 MOL     -0.173876
     26 C12        -2.4150   -4.7440   -2.5650 c3        1 MOL     -0.439663
     27 H8          1.0050   -3.7940    0.0050 hn        1 MOL     -0.278987
     28 H9          1.6390   -6.5840   -0.8920 h1        1 MOL      0.089513
     29 H10        -0.3170   -6.6060   -2.4440 hc        1 MOL     -0.008461
     30 H11        -0.4420   -4.1480   -2.8580 hc        1 MOL      0.002314
     31 H12        -0.8810   -3.8090   -1.3130 hc        1 MOL      0.002314
     32 H13        -1.1100   -5.9320    0.4330 hc        1 MOL      0.026323
     33 H14        -2.1180   -6.7650   -0.7760 hc        1 MOL      0.026323
     34 H15        -0.6520   -7.5310   -0.1420 hc        1 MOL      0.026323
     35 H16        -2.6960   -5.7130   -2.9670 hc        1 MOL      0.100074
     36 H17        -2.9620   -4.5110   -1.6460 hc        1 MOL      0.100074
     37 H18        -2.6720   -3.9680   -3.2870 hc        1 MOL      0.100074
     38 N3          2.6000   -4.0170   -2.2730 n         1 MOL     -0.272919
     39 C13         3.3340   -3.5080   -3.4370 c3        1 MOL     -0.001587
     40 C14         4.7870   -3.0670   -3.2590 c         1 MOL      0.396133
     41 O6          5.5300   -2.7690   -4.2300 o         1 MOL     -0.565732
     42 C15         2.5460   -2.4670   -4.2480 c3        1 MOL     -0.119627
     43 C16         2.3240   -1.2180   -3.4450 c         1 MOL      0.745715
     44 O7          2.9080   -1.0220   -2.3320 o         1 MOL     -0.699510
     45 O8          1.5500   -0.4310   -3.8930 o         1 MOL     -0.699510
     46 H19         2.7580   -3.6140   -1.3590 hn        1 MOL      0.203810
     47 H20         3.5420   -4.2790   -4.1800 h1        1 MOL      0.083479
     48 H21         1.5910   -2.9080   -4.5690 hc        1 MOL      0.039154
     49 H22         3.0560   -2.2420   -5.1940 hc        1 MOL      0.039154
     50 N4          5.2960   -2.8960   -2.0180 n         1 MOL     -0.116994
     51 C17         6.6910   -2.5570   -1.6730 c3        1 MOL     -0.234690
     52 C18         7.1610   -1.1060   -1.7460 c         1 MOL      0.517937
     53 O9          8.3780   -0.7650   -1.6310 o         1 MOL     -0.651246
     54 H23         4.7220   -2.9920   -1.1880 hn        1 MOL      0.105217
     55 H24         7.2820   -3.1730   -2.3480 h1        1 MOL      0.109201
     56 H25         6.8410   -2.8960   -0.6420 h1        1 MOL      0.109201
     57 N5          6.2640   -0.1900   -1.9520 n         1 MOL     -0.074255
     58 C19         6.5190    1.2520   -2.1680 c3        1 MOL     -0.020965
     59 C20         6.9560    2.1890   -1.0630 c         1 MOL      0.367355
     60 O10         7.2680    3.3670   -1.2820 o         1 MOL     -0.515550
     61 C21         5.4430    1.9110   -2.9960 c3        1 MOL     -0.357340
     62 C22         4.1430    1.9360   -2.3250 c         1 MOL      0.958125
     63 O11         3.9610    1.3930   -1.2180 o         1 MOL     -0.752319
     64 O12         3.2330    2.5460   -2.8770 o         1 MOL     -0.752319
     65 H26         5.3070   -0.5360   -1.9870 hn        1 MOL      0.086468
     66 H27         7.3440    1.2410   -2.8720 h1        1 MOL      0.096133
     67 H28         5.3840    1.3230   -3.9060 hc        1 MOL      0.092639
     68 H29         5.6840    2.9440   -3.2510 hc        1 MOL      0.092639
     69 N6          6.9720    1.6700    0.1670 n         1 MOL     -0.150980
     70 C23         7.1860    2.3790    1.4250 c3        1 MOL     -0.290678
     71 C24         6.1000    3.3950    1.8520 c         1 MOL      0.494724
     72 O13         6.3270    4.3270    2.6100 o         1 MOL     -0.573296
     73 H30         6.9020    0.6630    0.1290 hn        1 MOL      0.211366
     74 H31         8.1090    2.9190    1.2340 h1        1 MOL      0.125825
     75 H32         7.3960    1.6090    2.1730 h1        1 MOL      0.125825
     76 N7          4.9080    3.2830    1.2630 n         1 MOL     -0.086431
     77 C25         3.7010    4.1390    1.5620 c3        1 MOL     -0.025348
     78 C26         2.4760    3.2360    1.7850 c         1 MOL      0.247176
     79 O14         2.4330    2.0690    1.2770 o         1 MOL     -0.329349
     80 C27         3.4790    5.1110    0.3670 c3        1 MOL      0.039388
     81 C28         4.5060    6.2060    0.2660 c3        1 MOL     -0.353172
     82 C29         4.0650    7.3880   -0.5760 c         1 MOL      0.723615
     83 N8          4.2900    7.2630   -1.8970 n         1 MOL     -0.843680
     84 O15         3.5820    8.3760   -0.0650 o         1 MOL     -0.588710
     85 H33         4.7560    2.4530    0.7100 hn        1 MOL      0.071492
     86 H34         3.9170    4.6640    2.4890 h1        1 MOL      0.054263
     87 H35         2.5370    5.6590    0.4690 hc        1 MOL      0.055284
     88 H36         3.3780    4.4270   -0.4680 hc        1 MOL      0.055284
     89 H37         5.4210    5.8770   -0.2260 hc        1 MOL      0.114687
     90 H38         4.8840    6.5130    1.2390 hc        1 MOL      0.114687
     91 H39         4.7050    6.4410   -2.3030 hn        1 MOL      0.369896
     92 H40         3.8760    7.9050   -2.5590 hn        1 MOL      0.369896
     93 N9          1.3900    3.7500    2.3580 n         1 MOL     -0.266105
     94 C30         0.0740    3.0650    2.5920 c3        1 MOL     -0.055208
     95 C31        -1.0000    3.4140    1.5050 c         1 MOL      0.418201
     96 O16        -1.1850    4.5590    1.1010 o         1 MOL     -0.573116
     97 C32        -0.4430    3.2610    4.0570 c3        1 MOL      0.175764
     98 C33        -1.6070    2.3300    4.2920 c3        1 MOL     -0.191128
     99 C34         0.6240    2.9950    5.1840 c3        1 MOL     -0.191128
    100 H41         1.4660    4.6860    2.7180 hn        1 MOL      0.259413
    101 H42         0.2800    2.0030    2.4660 h1        1 MOL      0.144853
    102 H43        -0.6750    4.3130    4.2500 hc        1 MOL     -0.003467
    103 H44        -1.9260    2.3380    5.3310 hc        1 MOL      0.038879
    104 H45        -2.4720    2.6400    3.7090 hc        1 MOL      0.038879
    105 H46        -1.3820    1.3010    4.0190 hc        1 MOL      0.038879
    106 H47         0.2370    2.7920    6.1850 hc        1 MOL      0.038879
    107 H48         1.2310    2.1340    4.9080 hc        1 MOL      0.038879
    108 H49         1.2470    3.8810    5.2520 hc        1 MOL      0.038879
    109 N10        -1.6000    2.3680    0.9470 n         1 MOL      0.103231
    110 C35        -2.7650    2.4810    0.1220 c3        1 MOL      0.139642
    111 C36        -4.0570    2.1780    0.8000 c         1 MOL      0.055609
    112 O17        -4.0740    1.5230    1.8520 o         1 MOL     -0.211135
    113 C37        -2.5010    1.6160   -1.1460 c3        1 MOL     -0.071851
    114 C38        -3.5460    1.5630   -2.1740 c         1 MOL      0.589368
    115 N11        -3.8720    2.7020   -2.8140 n         1 MOL     -0.743919
    116 O18        -4.2660    0.6460   -2.4130 o         1 MOL     -0.496383
    117 H50        -1.3310    1.4470    1.2570 hn        1 MOL     -0.240456
    118 H51        -2.8570    3.4830   -0.3080 h1        1 MOL      0.028368
    119 H52        -2.2710    0.5820   -0.8760 hc        1 MOL      0.060927
    120 H53        -1.5580    2.0040   -1.5330 hc        1 MOL      0.060927
    121 H54        -3.3920    3.5930   -2.7510 hn        1 MOL      0.332495
    122 H55        -4.6630    2.6030   -3.4400 hn        1 MOL      0.332495
    123 N12        -5.1500    2.6760    0.2130 n         1 MOL     -0.151475
    124 C39        -6.4920    2.3580    0.6580 c3        1 MOL      0.113018
    125 C40        -6.7920    0.8850    0.8760 c         1 MOL      0.260136
    126 O19        -7.4480    0.5240    1.8070 o         1 MOL     -0.514832
    127 C41        -7.5200    3.1330   -0.1810 c3        1 MOL     -0.041629
    128 C42        -7.2680    3.1440   -1.6400 ca        1 MOL     -0.138229
    129 C43        -6.6390    4.1850   -2.3290 ca        1 MOL     -0.011748
    130 C44        -7.7780    2.0580   -2.4140 ca        1 MOL     -0.011748
    131 C45        -6.5470    4.2000   -3.7300 ca        1 MOL     -0.347406
    132 C46        -7.6280    2.0150   -3.8050 ca        1 MOL     -0.347406
    133 C47        -7.0100    3.1130   -4.4840 ca        1 MOL      0.430394
    134 O20        -6.7260    3.0400   -5.7840 oh        1 MOL     -0.587299
    135 H56        -4.9870    3.3040   -0.5600 hn        1 MOL      0.164408
    136 H57        -6.6310    2.8420    1.6310 h1        1 MOL      0.029191
    137 H58        -7.4980    4.1740    0.1650 hc        1 MOL      0.051358
    138 H59        -8.4960    2.7800    0.1580 hc        1 MOL      0.051358
    139 H60        -6.3330    5.1140   -1.8820 ha        1 MOL      0.076210
    140 H61        -8.2560    1.2350   -1.8850 ha        1 MOL      0.076210
    141 H62        -6.1390    5.0420   -4.2650 ha        1 MOL      0.143930
    142 H63        -8.0120    1.1300   -4.2820 ha        1 MOL      0.143930
    143 H64        -6.9450    2.2000   -6.1900 ho        1 MOL      0.436037
    144 N13        -6.3560   -0.0160   -0.0140 n         1 MOL      0.099192
    145 C48        -6.4250   -1.4890    0.1940 c3        1 MOL     -0.398098
    146 C49        -5.4820   -2.0540    1.3140 c         1 MOL      0.614357
    147 O21        -5.6240   -3.1780    1.6630 o         1 MOL     -0.548398
    148 C50        -6.1070   -2.1530   -1.1290 c3        1 MOL      0.159424
    149 C51        -7.0650   -1.7670   -2.2010 c3        1 MOL     -0.099796
    150 C52        -8.4860   -1.9950   -1.8890 c         1 MOL      0.645859
    151 O22        -8.9490   -3.0540   -1.4360 o         1 MOL     -0.709461
    152 O23        -9.3520   -1.0880   -2.1130 o         1 MOL     -0.709461
    153 H65        -5.8010    0.3270   -0.7770 hn        1 MOL      0.219583
    154 H66        -7.4040   -1.8160    0.5210 h1        1 MOL      0.211437
    155 H67        -6.1880   -3.2270   -0.9560 hc        1 MOL     -0.025106
    156 H68        -5.1880   -1.8240   -1.6190 hc        1 MOL     -0.025106
    157 H69        -6.8940   -2.3460   -3.1060 hc        1 MOL     -0.004546
    158 H70        -6.9500   -0.7140   -2.4620 hc        1 MOL     -0.004546
    159 N14        -4.4870   -1.3270    1.7950 n         1 MOL     -0.346277
    160 C53        -3.4800   -1.6450    2.8260 c3        1 MOL      0.383376
    161 C54        -3.7570   -1.0460    4.1760 c         1 MOL      0.231013
    162 O24        -3.8030   -1.8190    5.1230 o         1 MOL     -0.550839
    163 C55        -2.1030   -1.1640    2.4280 c3        1 MOL     -0.299869
    164 C56        -1.5670   -2.0710    1.2730 c3        1 MOL      0.322024
    165 C57        -0.3790   -1.4310    0.5720 c         1 MOL      0.798960
    166 O25         0.3300   -2.1230   -0.2070 o         1 MOL     -0.706552
    167 O26        -0.1920   -0.2020    0.6200 o         1 MOL     -0.706552
    168 H71        -4.2930   -0.4310    1.3690 hn        1 MOL      0.006544
    169 H72        -3.4790   -2.7160    3.0270 h1        1 MOL     -0.007176
    170 H73        -1.3640   -1.3930    3.2020 hc        1 MOL      0.087477
    171 H74        -2.2050   -0.1440    2.0690 hc        1 MOL      0.087477
    172 H75        -2.3250   -2.4660    0.6060 hc        1 MOL     -0.089146
    173 H76        -1.2120   -2.9920    1.7190 hc        1 MOL     -0.089146
    174 N15        -4.2270    0.1620    4.2730 n         1 MOL      0.013054
    175 C58        -4.7400    0.7530    5.5190 c3        1 MOL      0.055821
    176 H77        -5.7830    1.0380    5.3830 h1        1 MOL      0.007755
    177 H78        -4.6650    0.0240    6.3260 h1        1 MOL      0.007755
    178 H79        -4.1540    1.6360    5.7720 h1        1 MOL      0.007755
    179 H80        -4.2080    0.7100    3.4200 hn        1 MOL      0.006056
    180 Ca1         2.4430   -0.2360   -0.0020 Ca        1 MOL      1.725789
    181 O27         2.1810   -0.6790    2.7580 oh        1 MOL     -0.922889
    182 H81         1.5230   -1.0460    3.3500 ho        1 MOL      0.428510
    183 H82         2.8060   -0.2420    3.3400 ho        1 MOL      0.428510
    184 O28         4.5950    0.1910    1.9270 oh        1 MOL     -0.922889
    185 H83         5.4710   -0.1940    1.8190 ho        1 MOL      0.428510
    186 H84         4.4840    0.2630    2.8680 ho        1 MOL      0.428510
    187 O29         1.2000    1.3090   -1.7420 oh        1 MOL     -0.922889
    188 H85         1.1940    0.6250   -2.4070 ho        1 MOL      0.428510
    189 H86         1.7870    1.9770   -2.0920 ho        1 MOL      0.428510
@<TRIPOS>BOND
     1    1    2 1   
     2    1    4 1   
     3    1    5 1   
     4    1    6 1   
     5    2    3 2   
     6    2    7 1   
     7    7    8 1   
     8    7   15 1   
     9    8    9 1   
    10    8   11 1   
    11    8   16 1   
    12    9   10 2   
    13    9   19 1   
    14   11   12 1   
    15   11   17 1   
    16   11   18 1   
    17   12   13 1   
    18   12   14 1   
    19   19   20 1   
    20   19   27 1   
    21   20   21 1   
    22   20   23 1   
    23   20   28 1   
    24   21   22 2   
    25   21   38 1   
    26   23   24 1   
    27   23   25 1   
    28   23   29 1   
    29   24   26 1   
    30   24   30 1   
    31   24   31 1   
    32   25   32 1   
    33   25   33 1   
    34   25   34 1   
    35   26   35 1   
    36   26   36 1   
    37   26   37 1   
    38   38   39 1   
    39   38   46 1   
    40   39   40 1   
    41   39   42 1   
    42   39   47 1   
    43   40   41 2   
    44   40   50 1   
    45   42   43 1   
    46   42   48 1   
    47   42   49 1   
    48   43   44 1   
    49   43   45 1   
    50   50   51 1   
    51   50   54 1   
    52   51   52 1   
    53   51   55 1   
    54   51   56 1   
    55   52   53 2   
    56   52   57 1   
    57   57   58 1   
    58   57   65 1   
    59   58   59 1   
    60   58   61 1   
    61   58   66 1   
    62   59   60 2   
    63   59   69 1   
    64   61   62 1   
    65   61   67 1   
    66   61   68 1   
    67   62   63 1   
    68   62   64 1   
    69   69   70 1   
    70   69   73 1   
    71   70   71 1   
    72   70   74 1   
    73   70   75 1   
    74   71   72 2   
    75   71   76 1   
    76   76   77 1   
    77   76   85 1   
    78   77   78 1   
    79   77   80 1   
    80   77   86 1   
    81   78   79 2   
    82   78   93 1   
    83   80   81 1   
    84   80   87 1   
    85   80   88 1   
    86   81   82 1   
    87   81   89 1   
    88   81   90 1   
    89   82   83 1   
    90   82   84 2   
    91   83   91 1   
    92   83   92 1   
    93   93   94 1   
    94   93  100 1   
    95   94   95 1   
    96   94   97 1   
    97   94  101 1   
    98   95   96 2   
    99   95  109 1   
   100   97   98 1   
   101   97   99 1   
   102   97  102 1   
   103   98  103 1   
   104   98  104 1   
   105   98  105 1   
   106   99  106 1   
   107   99  107 1   
   108   99  108 1   
   109  109  110 1   
   110  109  117 1   
   111  110  111 1   
   112  110  113 1   
   113  110  118 1   
   114  111  112 2   
   115  111  123 1   
   116  113  114 1   
   117  113  119 1   
   118  113  120 1   
   119  114  115 1   
   120  114  116 2   
   121  115  121 1   
   122  115  122 1   
   123  123  124 1   
   124  123  135 1   
   125  124  125 1   
   126  124  127 1   
   127  124  136 1   
   128  125  126 2   
   129  125  144 1   
   130  127  128 1   
   131  127  137 1   
   132  127  138 1   
   133  128  129 ar  
   134  128  130 ar  
   135  129  131 ar  
   136  129  139 1   
   137  130  132 ar  
   138  130  140 1   
   139  131  133 ar  
   140  131  141 1   
   141  132  133 ar  
   142  132  142 1   
   143  133  134 1   
   144  134  143 1   
   145  144  145 1   
   146  144  153 1   
   147  145  146 1   
   148  145  148 1   
   149  145  154 1   
   150  146  147 2   
   151  146  159 1   
   152  148  149 1   
   153  148  155 1   
   154  148  156 1   
   155  149  150 1   
   156  149  157 1   
   157  149  158 1   
   158  150  151 1   
   159  150  152 1   
   160  159  160 1   
   161  159  168 1   
   162  160  161 1   
   163  160  163 1   
   164  160  169 1   
   165  161  162 2   
   166  161  174 1   
   167  163  164 1   
   168  163  170 1   
   169  163  171 1   
   170  164  165 1   
   171  164  172 1   
   172  164  173 1   
   173  165  166 1   
   174  165  167 1   
   175  174  175 1   
   176  174  179 1   
   177  175  176 1   
   178  175  177 1   
   179  175  178 1   
   180  181  182 1   
   181  181  183 1   
   182  184  185 1   
   183  184  186 1   
   184  187  188 1   
   185  187  189 1   
@<TRIPOS>SUBSTRUCTURE
     1 MOL         1 TEMP              0 ****  ****    0 ROOT
