@<TRIPOS>MOLECULE
MOL
  179   176     1     0     0
SMALL
resp


@<TRIPOS>ATOM
      1 C1          2.3590    3.7430    3.7450 c3        1 MOL     -0.408740
      2 C2          1.3890    3.3460    2.6180 c         1 MOL      0.571320
      3 O1          1.7630    3.5430    1.4320 o         1 MOL     -0.497560
      4 H1          2.7860    4.7220    3.5270 hc        1 MOL      0.108550
      5 H2          1.8200    3.7850    4.6910 hc        1 MOL      0.108550
      6 H3          3.1590    3.0060    3.8130 hc        1 MOL      0.108550
      7 N1          0.1280    2.9270    2.9800 n         1 MOL     -0.617993
      8 C3         -0.9850    2.6670    2.0060 c3        1 MOL      0.065894
      9 C4         -1.6850    3.9920    1.5480 c         1 MOL      0.711408
     10 O2         -2.9000    4.0740    1.6980 o         1 MOL     -0.528571
     11 C5         -1.9880    1.6600    2.5860 c3        1 MOL      0.045685
     12 C6         -2.9350    1.1500    1.5520 c         1 MOL      0.554321
     13 O3         -4.0960    0.7320    1.9420 o         1 MOL     -0.629205
     14 O4         -2.5740    1.2360    0.3610 o         1 MOL     -0.629205
     15 H4         -0.0340    2.7820    3.9700 hn        1 MOL      0.345351
     16 H5         -0.4900    2.1740    1.1740 h1        1 MOL      0.018862
     17 H6         -2.5420    2.0730    3.4340 hc        1 MOL     -0.010862
     18 H7         -1.3060    0.9150    3.0000 hc        1 MOL     -0.010862
     19 N2         -1.0100    4.9240    0.9510 n         1 MOL     -0.723939
     20 C7         -1.5300    6.0870    0.3880 c3        1 MOL      0.244920
     21 C8         -2.5950    5.8650   -0.6770 c         1 MOL      0.299637
     22 O5         -3.4900    6.6980   -0.8060 o         1 MOL     -0.489875
     23 C9         -0.3840    6.9690   -0.1520 c3        1 MOL     -0.215677
     24 C10         0.7950    7.1520    0.8150 c3        1 MOL      0.328566
     25 C11         1.9540    8.0410    0.2370 c3        1 MOL     -0.137651
     26 C12         3.2770    8.1100    1.0030 c3        1 MOL      0.054917
     27 N3          3.0960    8.7540    2.3500 n4        1 MOL     -0.411093
     28 H8         -0.0210    4.7580    0.8030 hn        1 MOL      0.388863
     29 H9         -2.0380    6.6760    1.1490 h1        1 MOL      0.057079
     30 H10        -0.7230    7.9850   -0.3360 hc        1 MOL      0.059511
     31 H11         0.0500    6.5560   -1.0650 hc        1 MOL      0.059511
     32 H12         1.2810    6.1980    1.0420 hc        1 MOL     -0.084717
     33 H13         0.3940    7.6650    1.6840 hc        1 MOL     -0.084717
     34 H14         1.7140    9.1040    0.1800 hc        1 MOL      0.056798
     35 H15         2.2050    7.6020   -0.7240 hc        1 MOL      0.056798
     36 H16         4.0010    8.6530    0.4070 hx        1 MOL      0.096344
     37 H17         3.6860    7.0980    1.0530 hx        1 MOL      0.096344
     38 H18         3.9970    8.7250    2.8020 hn        1 MOL      0.339058
     39 H19         2.7130    9.6870    2.2320 hn        1 MOL      0.339058
     40 H20         2.5550    8.1310    2.9190 hn        1 MOL      0.339058
     41 N4         -2.4910    4.7980   -1.5250 n         1 MOL     -0.190233
     42 C13        -3.5740    4.6140   -2.4510 c3        1 MOL     -0.054102
     43 C14        -4.8170    4.0350   -1.7250 c         1 MOL      0.418687
     44 O6         -5.9520    4.2170   -2.1680 o         1 MOL     -0.560378
     45 C15        -3.2040    3.6530   -3.5800 c3        1 MOL     -0.263611
     46 C16        -2.5050    2.4090   -3.0530 c         1 MOL      0.697630
     47 O7         -1.3190    2.3720   -2.6920 o         1 MOL     -0.726904
     48 O8         -3.1210    1.3110   -2.9190 o         1 MOL     -0.726904
     49 H21        -1.6340    4.2670   -1.5780 hn        1 MOL      0.231928
     50 H22        -3.8790    5.6030   -2.8040 h1        1 MOL      0.116260
     51 H23        -2.4340    4.1660   -4.1430 hc        1 MOL      0.083577
     52 H24        -3.9260    3.2860   -4.3140 hc        1 MOL      0.083577
     53 N5         -4.5710    3.4230   -0.6070 n         1 MOL      0.117766
     54 C17        -5.5940    2.9850    0.3780 c3        1 MOL     -0.324798
     55 C18        -6.3070    1.6900    0.0260 c         1 MOL      0.591767
     56 O9         -7.4990    1.5200    0.4390 o         1 MOL     -0.561932
     57 H25        -3.6120    3.4380   -0.3160 hn        1 MOL      0.067890
     58 H26        -6.4160    3.7100    0.3220 h1        1 MOL      0.132150
     59 H27        -5.1240    2.8370    1.3470 h1        1 MOL      0.132150
     60 N6         -5.7280    0.7600   -0.8170 n         1 MOL     -0.275955
     61 C19        -6.4770   -0.4190   -1.2570 c3        1 MOL     -0.053096
     62 C20        -6.6610   -1.4080   -0.0540 c         1 MOL      0.460835
     63 O10        -7.5730   -2.2270   -0.0680 o         1 MOL     -0.567189
     64 C21        -5.8430   -1.0990   -2.4880 c3        1 MOL     -0.195852
     65 C22        -4.5640   -1.8120   -2.2530 c         1 MOL      0.620736
     66 N7         -4.2540   -2.7940   -3.0640 n         1 MOL     -0.772045
     67 O11        -3.7160   -1.3940   -1.4020 o         1 MOL     -0.534654
     68 H28        -4.8320    0.9420   -1.2560 hn        1 MOL      0.123237
     69 H29        -7.5360   -0.1910   -1.4120 h1        1 MOL      0.111322
     70 H30        -5.5980   -0.3840   -3.2740 hc        1 MOL      0.094309
     71 H31        -6.5280   -1.8250   -2.9300 hc        1 MOL      0.094309
     72 H32        -4.8860   -3.0630   -3.8080 hn        1 MOL      0.366821
     73 H33        -3.3380   -3.2100   -2.9900 hn        1 MOL      0.366821
     74 N8         -5.9070   -1.2280    1.0670 n         1 MOL     -0.073965
     75 C23        -5.8770   -2.1160    2.2900 c3        1 MOL     -0.397576
     76 C24        -4.6620   -3.0050    2.4450 c         1 MOL      0.677849
     77 O12        -4.6180   -3.9580    3.1570 o         1 MOL     -0.528631
     78 H34        -5.2930   -0.4320    1.0850 hn        1 MOL      0.190136
     79 H35        -6.7100   -2.8200    2.2660 h1        1 MOL      0.160668
     80 H36        -6.0320   -1.4720    3.1500 h1        1 MOL      0.160668
     81 N9         -3.5020   -2.6830    1.7080 n         1 MOL     -0.550347
     82 C25        -2.2990   -3.5230    1.5860 c3        1 MOL     -0.002012
     83 C26        -1.1070   -2.6700    1.3400 c         1 MOL      0.834464
     84 O13        -1.2460   -1.7500    0.5500 o         1 MOL     -0.712307
     85 C27        -2.4490   -4.3360    0.3620 c3        1 MOL      0.005004
     86 C28        -3.5500   -5.4150    0.4500 ca        1 MOL     -0.193414
     87 C29        -3.3150   -6.6970    1.0340 ca        1 MOL      0.078354
     88 C30        -4.8260   -5.1770   -0.1390 ca        1 MOL      0.078354
     89 C31        -4.3030   -7.7340    0.9640 ca        1 MOL     -0.477507
     90 C32        -5.7710   -6.2360   -0.1980 ca        1 MOL     -0.477507
     91 C33        -5.5410   -7.4630    0.3650 ca        1 MOL      0.581811
     92 O14        -6.4780   -8.4000    0.3640 oh        1 MOL     -0.572318
     93 H37        -3.5660   -1.8100    1.1950 hn        1 MOL      0.279010
     94 H38        -2.2000   -4.1890    2.4430 h1        1 MOL      0.093556
     95 H39        -1.5370   -4.9180    0.1810 hc        1 MOL      0.006722
     96 H40        -2.5480   -3.7290   -0.5370 hc        1 MOL      0.006722
     97 H41        -2.3670   -6.9180    1.5100 ha        1 MOL      0.084654
     98 H42        -5.0760   -4.2260   -0.5800 ha        1 MOL      0.084654
     99 H43        -4.1410   -8.6540    1.4950 ha        1 MOL      0.185916
    100 H44        -6.7620   -5.9920   -0.5550 ha        1 MOL      0.185916
    101 H45        -7.3550   -8.2530   -0.0030 ho        1 MOL      0.400854
    102 N10         0.0310   -2.9070    1.9560 n         1 MOL     -0.616486
    103 C34         1.3690   -2.3290    1.5550 c3        1 MOL      0.181078
    104 C35         2.3800   -3.3520    1.0530 c         1 MOL      0.479351
    105 O15         2.2970   -4.5080    1.5180 o         1 MOL     -0.534675
    106 C36         1.9050   -1.4770    2.7170 c3        1 MOL     -0.002520
    107 C37         2.4040   -2.1850    4.0360 c3        1 MOL     -0.201164
    108 C38         0.8690   -0.4460    3.1500 c3        1 MOL     -0.323442
    109 C39         3.2030   -1.3440    5.0300 c3        1 MOL     -0.088083
    110 H46         0.1000   -3.6720    2.6070 hn        1 MOL      0.293070
    111 H47         1.2560   -1.6840    0.6960 h1        1 MOL     -0.031360
    112 H48         2.7830   -0.8650    2.5170 hc        1 MOL      0.051009
    113 H49         2.9700   -3.0830    3.7980 hc        1 MOL      0.094989
    114 H50         1.5440   -2.4950    4.6300 hc        1 MOL      0.094989
    115 H51         0.5620    0.0980    2.2640 hc        1 MOL      0.119981
    116 H52         0.0430   -0.8410    3.7400 hc        1 MOL      0.119981
    117 H53         1.4680    0.3110    3.6590 hc        1 MOL      0.119981
    118 H54         2.6520   -0.5620    5.5480 hc        1 MOL      0.031162
    119 H55         3.5300   -1.9690    5.8610 hc        1 MOL      0.031162
    120 H56         4.0660   -0.8680    4.5610 hc        1 MOL      0.031162
    121 N11         3.3410   -2.9040    0.2620 n         1 MOL     -0.200097
    122 C40         4.3350   -3.7650   -0.3660 c3        1 MOL      0.026251
    123 C41         5.7380   -3.3750   -0.0560 c         1 MOL      0.563426
    124 O16         5.9350   -2.2860    0.4830 o         1 MOL     -0.479571
    125 C42         4.1740   -3.7300   -1.8670 c3        1 MOL     -0.278146
    126 O17         4.5590   -2.4920   -2.3610 oh        1 MOL     -0.365531
    127 H57         3.4410   -1.9090    0.2060 hn        1 MOL      0.079231
    128 H58         4.1400   -4.7660    0.0290 h1        1 MOL      0.068769
    129 H59         3.1350   -3.8270   -2.1870 h1        1 MOL      0.137168
    130 H60         4.7630   -4.5240   -2.3200 h1        1 MOL      0.137168
    131 H61         4.0410   -2.3700   -3.1550 ho        1 MOL      0.381585
    132 N12         6.7560   -4.1970   -0.4090 n         1 MOL     -0.531916
    133 C43         8.1930   -3.8470   -0.2870 c3        1 MOL      0.146596
    134 C44         8.5060   -2.5010   -0.8760 c         1 MOL      0.461739
    135 O18         9.4150   -1.7960   -0.4120 o         1 MOL     -0.535446
    136 C45         9.0840   -4.9870   -0.8390 c3        1 MOL     -0.233981
    137 H62         6.4940   -4.8860   -1.0980 hn        1 MOL      0.303157
    138 H63         8.3360   -3.7340    0.7870 h1        1 MOL      0.090558
    139 H64         8.6000   -5.9140   -0.5390 hc        1 MOL      0.080559
    140 H65         9.1660   -4.8890   -1.9200 hc        1 MOL      0.080559
    141 H66        10.0750   -4.9290   -0.4060 hc        1 MOL      0.080559
    142 N13         7.7260   -2.0010   -1.8630 n         1 MOL     -0.263538
    143 C46         7.8720   -0.6840   -2.5480 c3        1 MOL      0.000049
    144 C47         7.2120    0.5230   -1.8010 c         1 MOL      0.483052
    145 O19         7.8660    1.5280   -1.6580 o         1 MOL     -0.506275
    146 C48         7.3660   -0.7440   -3.9700 c3        1 MOL     -0.143790
    147 H67         6.9500   -2.5810   -2.1630 hn        1 MOL      0.168891
    148 H68         8.9410   -0.4660   -2.4610 h1        1 MOL      0.095859
    149 H69         6.3300   -1.0920   -3.9110 hc        1 MOL      0.038301
    150 H70         7.3910    0.2030   -4.5200 hc        1 MOL      0.038301
    151 H71         7.8740   -1.5170   -4.5390 hc        1 MOL      0.038301
    152 N14         5.9880    0.2540   -1.3660 n         1 MOL     -0.189683
    153 C49         5.2540    1.2440   -0.5890 c3        1 MOL     -0.296564
    154 C50         6.0140    1.3940    0.8180 c         1 MOL      0.448849
    155 O20         6.0330    2.5310    1.3570 o         1 MOL     -0.554630
    156 C51         3.7900    0.8560   -0.5300 c3        1 MOL      0.104870
    157 C52         3.0610    0.9210   -1.8760 c3        1 MOL     -0.062064
    158 C53         1.5860    0.4230   -1.6370 c         1 MOL      0.707415
    159 O21         1.1720   -0.5620   -2.3700 o         1 MOL     -0.728318
    160 O22         0.7700    1.0300   -0.8660 o         1 MOL     -0.728318
    161 H72         5.5360   -0.6340   -1.5210 hn        1 MOL      0.166827
    162 H73         5.2700    2.2090   -1.0860 h1        1 MOL      0.166827
    163 H74         3.2780    1.5230    0.1620 hc        1 MOL      0.057506
    164 H75         3.6560   -0.1440   -0.1130 hc        1 MOL      0.057506
    165 H76         3.4290    0.2390   -2.6530 hc        1 MOL     -0.007843
    166 H77         3.0550    1.9560   -2.2060 hc        1 MOL     -0.007843
    167 N15         6.7560    0.3590    1.2410 n         1 MOL     -0.083164
    168 C54         7.6110    0.3560    2.4310 c3        1 MOL     -0.240660
    169 H78         8.0360    1.3490    2.5750 h1        1 MOL      0.101248
    170 H79         7.0190    0.0840    3.3040 h1        1 MOL      0.101248
    171 H80         8.4170   -0.3670    2.2980 h1        1 MOL      0.101248
    172 H81         6.7390   -0.4640    0.6660 hn        1 MOL      0.155276
    173 Ca1        -1.4670   -0.1120   -1.4390 Ca        1 MOL      1.711046
    174 O23        -0.9970   -2.6200   -2.3460 oh        1 MOL     -0.755124
    175 H82        -0.5180   -2.7870   -3.1550 ho        1 MOL      0.382341
    176 H83        -0.6630   -3.2660   -1.7300 ho        1 MOL      0.382341
    177 O24        -1.0990   -0.2760   -4.4330 oh        1 MOL     -0.755124
    178 H84        -0.3310    0.2380   -4.6920 ho        1 MOL      0.382341
    179 H85        -1.8010    0.0520   -4.9990 ho        1 MOL      0.382341
@<TRIPOS>BOND
     1    1    2 1   
     2    1    4 1   
     3    1    5 1   
     4    1    6 1   
     5    2    3 2   
     6    2    7 1   
     7    7    8 1   
     8    7   15 1   
     9    8    9 1   
    10    8   11 1   
    11    8   16 1   
    12    9   10 2   
    13    9   19 1   
    14   11   12 1   
    15   11   17 1   
    16   11   18 1   
    17   12   13 1   
    18   12   14 1   
    19   19   20 1   
    20   19   28 1   
    21   20   21 1   
    22   20   23 1   
    23   20   29 1   
    24   21   22 2   
    25   21   41 1   
    26   23   24 1   
    27   23   30 1   
    28   23   31 1   
    29   24   25 1   
    30   24   32 1   
    31   24   33 1   
    32   25   26 1   
    33   25   34 1   
    34   25   35 1   
    35   26   27 1   
    36   26   36 1   
    37   26   37 1   
    38   27   38 1   
    39   27   39 1   
    40   27   40 1   
    41   41   42 1   
    42   41   49 1   
    43   42   43 1   
    44   42   45 1   
    45   42   50 1   
    46   43   44 2   
    47   43   53 1   
    48   45   46 1   
    49   45   51 1   
    50   45   52 1   
    51   46   47 1   
    52   46   48 1   
    53   53   54 1   
    54   53   57 1   
    55   54   55 1   
    56   54   58 1   
    57   54   59 1   
    58   55   56 2   
    59   55   60 1   
    60   60   61 1   
    61   60   68 1   
    62   61   62 1   
    63   61   64 1   
    64   61   69 1   
    65   62   63 2   
    66   62   74 1   
    67   64   65 1   
    68   64   70 1   
    69   64   71 1   
    70   65   66 1   
    71   65   67 2   
    72   66   72 1   
    73   66   73 1   
    74   74   75 1   
    75   74   78 1   
    76   75   76 1   
    77   75   79 1   
    78   75   80 1   
    79   76   77 2   
    80   76   81 1   
    81   81   82 1   
    82   81   93 1   
    83   82   83 1   
    84   82   85 1   
    85   82   94 1   
    86   83   84 2   
    87   83  102 1   
    88   85   86 1   
    89   85   95 1   
    90   85   96 1   
    91   86   87 ar  
    92   86   88 ar  
    93   87   89 ar  
    94   87   97 1   
    95   88   90 ar  
    96   88   98 1   
    97   89   91 ar  
    98   89   99 1   
    99   90   91 ar  
   100   90  100 1   
   101   91   92 1   
   102   92  101 1   
   103  102  103 1   
   104  102  110 1   
   105  103  104 1   
   106  103  106 1   
   107  103  111 1   
   108  104  105 2   
   109  104  121 1   
   110  106  107 1   
   111  106  108 1   
   112  106  112 1   
   113  107  109 1   
   114  107  113 1   
   115  107  114 1   
   116  108  115 1   
   117  108  116 1   
   118  108  117 1   
   119  109  118 1   
   120  109  119 1   
   121  109  120 1   
   122  121  122 1   
   123  121  127 1   
   124  122  123 1   
   125  122  125 1   
   126  122  128 1   
   127  123  124 2   
   128  123  132 1   
   129  125  126 1   
   130  125  129 1   
   131  125  130 1   
   132  126  131 1   
   133  132  133 1   
   134  132  137 1   
   135  133  134 1   
   136  133  136 1   
   137  133  138 1   
   138  134  135 2   
   139  134  142 1   
   140  136  139 1   
   141  136  140 1   
   142  136  141 1   
   143  142  143 1   
   144  142  147 1   
   145  143  144 1   
   146  143  146 1   
   147  143  148 1   
   148  144  145 2   
   149  144  152 1   
   150  146  149 1   
   151  146  150 1   
   152  146  151 1   
   153  152  153 1   
   154  152  161 1   
   155  153  154 1   
   156  153  156 1   
   157  153  162 1   
   158  154  155 2   
   159  154  167 1   
   160  156  157 1   
   161  156  163 1   
   162  156  164 1   
   163  157  158 1   
   164  157  165 1   
   165  157  166 1   
   166  158  159 1   
   167  158  160 1   
   168  167  168 1   
   169  167  172 1   
   170  168  169 1   
   171  168  170 1   
   172  168  171 1   
   173  174  175 1   
   174  174  176 1   
   175  177  178 1   
   176  177  179 1   
@<TRIPOS>SUBSTRUCTURE
     1 MOL         1 TEMP              0 ****  ****    0 ROOT
