@<TRIPOS>MOLECULE
MOL
  182   178     1     0     0
SMALL
resp


@<TRIPOS>ATOM
      1 C1         -1.4860   -3.6460    5.8210 c3        1 MOL     -0.356468
      2 C2         -1.0960   -3.2870    4.3680 c         1 MOL      0.714377
      3 O1         -1.9720   -3.2050    3.5360 o         1 MOL     -0.595212
      4 H1         -2.3000   -2.9990    6.1480 hc        1 MOL      0.092484
      5 H2         -1.8100   -4.6860    5.8630 hc        1 MOL      0.092484
      6 H3         -0.6260   -3.5070    6.4740 hc        1 MOL      0.092484
      7 N1          0.1690   -3.1260    4.0350 n         1 MOL     -0.530243
      8 C3          0.7370   -2.6690    2.7390 c3        1 MOL     -0.070831
      9 C4          1.0630   -3.9010    1.7820 c         1 MOL      0.620521
     10 O2          1.8390   -4.7850    2.0970 o         1 MOL     -0.557623
     11 C5          1.9680   -1.8250    3.0490 c3        1 MOL     -0.148481
     12 C6          2.6240   -1.2370    1.7880 c         1 MOL      0.701737
     13 O3          3.6850   -0.6020    1.9150 o         1 MOL     -0.708586
     14 O4          2.1880   -1.5230    0.6260 o         1 MOL     -0.708586
     15 H4          0.9260   -3.2230    4.6850 hn        1 MOL      0.303644
     16 H5         -0.0440   -2.1780    2.1540 h1        1 MOL      0.086416
     17 H6          2.7690   -2.3320    3.5720 hc        1 MOL      0.071300
     18 H7          1.7250   -0.9530    3.6560 hc        1 MOL      0.071300
     19 N2          0.3900   -3.9130    0.6250 n         1 MOL     -0.343652
     20 C7          0.2740   -5.1070   -0.2540 c3        1 MOL     -0.050501
     21 C8          1.5370   -5.5810   -0.9930 c         1 MOL      0.509376
     22 O5          1.6480   -6.7450   -1.4380 o         1 MOL     -0.568903
     23 C9         -0.9820   -5.0200   -1.1080 c3        1 MOL      0.021882
     24 C10        -2.2660   -5.3230   -0.3510 c3        1 MOL      0.028497
     25 C11        -3.4200   -5.7490   -1.2440 c3        1 MOL     -0.133450
     26 C12        -4.7580   -5.7610   -0.4780 c3        1 MOL      0.322429
     27 N3         -5.8160   -6.6350   -1.1250 n4        1 MOL     -0.481563
     28 H8         -0.0510   -3.0240    0.4120 hn        1 MOL      0.257811
     29 H9          0.0200   -5.9300    0.4210 h1        1 MOL      0.080757
     30 H10        -0.8460   -5.7660   -1.8860 hc        1 MOL      0.012945
     31 H11        -0.9990   -4.0110   -1.5000 hc        1 MOL      0.012945
     32 H12        -2.5090   -4.4240    0.2190 hc        1 MOL      0.026494
     33 H13        -2.1190   -6.1600    0.3270 hc        1 MOL      0.026494
     34 H14        -3.2100   -6.7540   -1.6090 hc        1 MOL      0.024129
     35 H15        -3.4930   -5.0090   -2.0420 hc        1 MOL      0.024129
     36 H16        -5.0880   -4.7230   -0.4190 hx        1 MOL      0.013546
     37 H17        -4.5960   -6.1290    0.5320 hx        1 MOL      0.013546
     38 H18        -6.3980   -6.1300   -1.7870 hn        1 MOL      0.345088
     39 H19        -5.4050   -7.4260   -1.5990 hn        1 MOL      0.345088
     40 H20        -6.3820   -7.0680   -0.4030 hn        1 MOL      0.345088
     41 N4          2.4980   -4.6590   -1.0130 n         1 MOL     -0.161938
     42 C13         3.8210   -4.7080   -1.6460 c3        1 MOL      0.051854
     43 C14         4.9880   -4.2030   -0.7210 c         1 MOL      0.445688
     44 O6          6.1570   -4.1580   -1.1790 o         1 MOL     -0.538821
     45 C15         3.7660   -3.9720   -3.0010 c3        1 MOL     -0.392376
     46 C16         3.6030   -2.4910   -2.8980 c         1 MOL      1.035508
     47 O7          3.4850   -1.8520   -3.9770 o         1 MOL     -0.774401
     48 O8          3.5230   -1.9620   -1.7740 o         1 MOL     -0.774401
     49 H21         2.3330   -3.8100   -0.4850 hn        1 MOL     -0.037027
     50 H22         4.1200   -5.7550   -1.7080 h1        1 MOL      0.097939
     51 H23         2.9110   -4.3840   -3.5290 hc        1 MOL      0.097700
     52 H24         4.6780   -4.0950   -3.5800 hc        1 MOL      0.097700
     53 N5          4.7780   -3.7480    0.4750 n         1 MOL     -0.290026
     54 C17         5.8790   -3.2300    1.3060 c3        1 MOL     -0.247544
     55 C18         6.4860   -1.9960    0.7130 c         1 MOL      0.468390
     56 O9          7.6150   -1.5740    1.0970 o         1 MOL     -0.585462
     57 H25         3.8440   -3.5170    0.8050 hn        1 MOL      0.257487
     58 H26         6.6340   -4.0140    1.3210 h1        1 MOL      0.153374
     59 H27         5.5470   -3.1140    2.3350 h1        1 MOL      0.153374
     60 N6          5.8730   -1.3330   -0.2820 n         1 MOL      0.002465
     61 C19         6.4590   -0.1380   -0.8830 c3        1 MOL     -0.248096
     62 C20         6.5260    1.1150    0.0510 c         1 MOL      0.453640
     63 O10         7.2070    2.0720   -0.2040 o         1 MOL     -0.505742
     64 C21         5.9070    0.1000   -2.3410 c3        1 MOL     -0.003433
     65 C22         4.6720    0.9660   -2.3830 c         1 MOL      0.516809
     66 N7          4.5550    1.8820   -3.2800 n         1 MOL     -0.552218
     67 O11         3.7980    0.9540   -1.5380 o         1 MOL     -0.606699
     68 H28         4.9680   -1.6660   -0.6090 hn        1 MOL      0.165058
     69 H29         7.5240   -0.3870   -0.9640 h1        1 MOL      0.136648
     70 H30         5.6690   -0.8550   -2.7970 hc        1 MOL      0.039641
     71 H31         6.6940    0.5430   -2.9570 hc        1 MOL      0.039641
     72 H32         5.2540    1.9430   -4.0080 hn        1 MOL      0.289231
     73 H33         3.6590    2.3520   -3.3590 hn        1 MOL      0.289231
     74 N8          5.9020    0.9970    1.2410 n         1 MOL     -0.080491
     75 C23         5.8630    1.9770    2.3210 c3        1 MOL     -0.393025
     76 C24         4.6500    2.9810    2.1580 c         1 MOL      0.651273
     77 O12         4.4740    3.8950    2.9270 o         1 MOL     -0.613861
     78 H34         5.2710    0.2030    1.3200 hn        1 MOL      0.206073
     79 H35         6.7930    2.5420    2.3390 h1        1 MOL      0.150748
     80 H36         5.7760    1.4050    3.2450 h1        1 MOL      0.150748
     81 N9          3.7520    2.7340    1.2670 n         1 MOL     -0.219419
     82 C25         2.5250    3.5590    1.1990 c3        1 MOL      0.045138
     83 C26         1.2730    2.7000    1.0070 c         1 MOL      0.546223
     84 O13         1.4060    1.5280    0.5420 o         1 MOL     -0.713795
     85 C27         2.6140    4.4180   -0.1290 c3        1 MOL     -0.066659
     86 C28         3.8680    5.2140   -0.1390 ca        1 MOL     -0.060296
     87 C29         4.9760    4.7850   -0.9420 ca        1 MOL     -0.051877
     88 C30         3.8360    6.4510    0.4930 ca        1 MOL     -0.051877
     89 C31         6.0620    5.7130   -1.0040 ca        1 MOL     -0.364538
     90 C32         4.8800    7.3250    0.3100 ca        1 MOL     -0.364538
     91 C33         6.0660    6.9900   -0.3840 ca        1 MOL      0.466601
     92 O14         7.0420    7.9330   -0.5110 oh        1 MOL     -0.507938
     93 H37         3.8760    1.9260    0.6720 hn        1 MOL      0.233593
     94 H38         2.3630    4.2180    2.0530 h1        1 MOL      0.076789
     95 H39         1.7980    5.1360   -0.1670 hc        1 MOL      0.023927
     96 H40         2.5320    3.8000   -1.0130 hc        1 MOL      0.023927
     97 H41         5.0330    3.8500   -1.4880 ha        1 MOL      0.106332
     98 H42         2.9520    6.8230    0.9780 ha        1 MOL      0.106332
     99 H43         6.8260    5.4250   -1.7060 ha        1 MOL      0.155590
    100 H44         4.6730    8.2570    0.8170 ha        1 MOL      0.155590
    101 H45         6.8910    8.5790    0.1810 ho        1 MOL      0.356506
    102 N10         0.1330    3.2010    1.4750 n         1 MOL     -0.504964
    103 C34        -1.1560    2.5140    1.3870 c3        1 MOL     -0.016968
    104 C35        -2.2580    3.4060    0.7890 c         1 MOL      0.509567
    105 O15        -2.5740    4.4640    1.3580 o         1 MOL     -0.511948
    106 C36        -1.6010    1.7880    2.6810 c3        1 MOL     -0.020048
    107 C37        -0.4400    0.9370    3.2780 c3        1 MOL      0.248023
    108 C38        -2.8180    0.9010    2.3970 c3        1 MOL     -0.064935
    109 C39        -0.7190    0.3100    4.6380 c3        1 MOL     -0.245904
    110 H46         0.1970    4.0480    2.0260 hn        1 MOL      0.324589
    111 H47        -1.0780    1.6680    0.7120 h1        1 MOL      0.172802
    112 H48        -1.9490    2.4710    3.4570 hc        1 MOL      0.005529
    113 H49         0.3790    1.6290    3.4490 hc        1 MOL     -0.020775
    114 H50        -0.1240    0.2040    2.5340 hc        1 MOL     -0.020775
    115 H51        -3.6330    1.6070    2.2460 hc        1 MOL      0.032511
    116 H52        -2.5210    0.3150    1.5310 hc        1 MOL      0.032511
    117 H53        -3.1840    0.3250    3.2520 hc        1 MOL      0.032511
    118 H54         0.2170   -0.0350    5.0820 hc        1 MOL      0.043816
    119 H55        -1.0650    1.1320    5.2620 hc        1 MOL      0.043816
    120 H56        -1.4060   -0.5390    4.6250 hc        1 MOL      0.043816
    121 N11        -2.8290    3.0500   -0.3810 n         1 MOL     -0.432876
    122 C40        -3.9900    3.7860   -0.9340 c3        1 MOL      0.015682
    123 C41        -5.2790    3.4550   -0.1810 c         1 MOL      0.348263
    124 O16        -5.4140    2.4210    0.5020 o         1 MOL     -0.295067
    125 C42        -4.2040    3.3930   -2.4110 c3        1 MOL     -0.134277
    126 O17        -4.6840    2.1090   -2.6260 oh        1 MOL     -0.333358
    127 H57        -2.5080    2.2630   -0.9200 hn        1 MOL      0.365813
    128 H58        -3.9170    4.8710   -0.8430 h1        1 MOL      0.094961
    129 H59        -3.2360    3.4360   -2.9110 h1        1 MOL      0.089287
    130 H60        -4.8380    4.1150   -2.9230 h1        1 MOL      0.089287
    131 H61        -4.6050    1.8530   -3.5490 ho        1 MOL      0.367404
    132 N12        -6.3070    4.2480   -0.3630 n         1 MOL     -0.321336
    133 C43        -7.5740    4.0150    0.2940 c3        1 MOL      0.093305
    134 C44        -8.2970    2.8140   -0.3590 c         1 MOL      0.473784
    135 O18        -9.0290    2.1240    0.2850 o         1 MOL     -0.493174
    136 C45        -8.3430    5.3610    0.3200 c3        1 MOL     -0.362097
    137 H62        -6.1730    5.0080   -1.0140 hn        1 MOL      0.275038
    138 H63        -7.3140    3.7520    1.3150 h1        1 MOL      0.110042
    139 H64        -9.2910    5.2780    0.8660 hc        1 MOL      0.113784
    140 H65        -7.7000    6.0640    0.8560 hc        1 MOL      0.113784
    141 H66        -8.3480    5.7650   -0.6850 hc        1 MOL      0.113784
    142 N13        -8.0700    2.4740   -1.6090 n         1 MOL     -0.416642
    143 C46        -8.4320    1.1530   -2.0960 c3        1 MOL      0.232294
    144 C47        -7.7130   -0.0060   -1.3990 c         1 MOL      0.399263
    145 O19        -8.3870   -0.9620   -1.1130 o         1 MOL     -0.528650
    146 C48        -8.0120    1.1930   -3.5820 c3        1 MOL     -0.353099
    147 H67        -7.6570    3.1570   -2.2240 hn        1 MOL      0.277114
    148 H68        -9.5010    0.9920   -1.9830 h1        1 MOL      0.066382
    149 H69        -6.9830    1.5230   -3.7040 hc        1 MOL      0.088567
    150 H70        -8.2210    0.2380   -4.0670 hc        1 MOL      0.088567
    151 H71        -8.5890    1.9990   -4.0380 hc        1 MOL      0.088567
    152 N14        -6.4550    0.1700   -1.0720 n         1 MOL      0.031211
    153 C49        -5.6490   -0.9020   -0.5190 c3        1 MOL     -0.128977
    154 C50        -5.8310   -1.1620    1.0310 c         1 MOL      0.403729
    155 O20        -5.8530   -2.2810    1.5260 o         1 MOL     -0.564740
    156 C51        -4.1960   -0.5550   -0.7740 c3        1 MOL     -0.004077
    157 C52        -3.1670   -1.5920   -0.4650 c3        1 MOL     -0.158799
    158 C53        -1.7970   -1.1660   -0.9870 c         1 MOL      0.596582
    159 O21        -0.8480   -1.0860   -0.1570 o         1 MOL     -0.721780
    160 O22        -1.4930   -0.8800   -2.1920 o         1 MOL     -0.721780
    161 H72        -6.0740    1.1030   -1.1060 hn        1 MOL     -0.282222
    162 H73        -5.8170   -1.8680   -0.9830 h1        1 MOL      0.106836
    163 H74        -4.0380    0.3410   -0.1690 hc        1 MOL      0.033154
    164 H75        -4.0060   -0.3520   -1.8260 hc        1 MOL      0.033154
    165 H76        -3.6090   -2.4520   -0.9710 hc        1 MOL      0.074168
    166 H77        -3.1090   -1.8190    0.5990 hc        1 MOL      0.074168
    167 N15        -6.1900   -0.1140    1.7580 n         1 MOL      0.007714
    168 C54        -6.5570   -0.0750    3.1880 c3        1 MOL     -0.181788
    169 H78        -7.5280    0.4080    3.3000 h1        1 MOL      0.084492
    170 H79        -6.6100   -1.0920    3.5780 h1        1 MOL      0.084492
    171 H80        -5.8060    0.4890    3.7410 h1        1 MOL      0.084492
    172 H81        -6.1120    0.8240    1.3820 hn        1 MOL      0.093321
    173 Ca1         1.4680   -0.3510   -1.4160 Ca        1 MOL      1.853732
    174 O23         0.5380   -2.3450   -2.9460 oh        1 MOL     -0.855764
    175 H82         0.3490   -3.2120   -3.3260 ho        1 MOL      0.401580
    176 H83        -0.3270   -1.9960   -2.7060 ho        1 MOL      0.401580
    177 O24         0.6330    1.9060   -2.4980 oh        1 MOL     -0.855764
    178 H84         1.2650    1.9570   -3.2210 ho        1 MOL      0.401580
    179 H85         0.2300    2.7720   -2.4680 ho        1 MOL      0.401580
    180 O25         2.0350    0.1750   -3.9060 oh        1 MOL     -0.855764
    181 H86         2.5920   -0.5600   -4.1600 ho        1 MOL      0.401580
    182 H87         1.9420    0.6940   -4.7070 ho        1 MOL      0.401580
@<TRIPOS>BOND
     1    1    2 1   
     2    1    4 1   
     3    1    5 1   
     4    1    6 1   
     5    2    3 2   
     6    2    7 1   
     7    7    8 1   
     8    7   15 1   
     9    8    9 1   
    10    8   11 1   
    11    8   16 1   
    12    9   10 2   
    13    9   19 1   
    14   11   12 1   
    15   11   17 1   
    16   11   18 1   
    17   12   13 1   
    18   12   14 1   
    19   19   20 1   
    20   19   28 1   
    21   20   21 1   
    22   20   23 1   
    23   20   29 1   
    24   21   22 2   
    25   21   41 1   
    26   23   24 1   
    27   23   30 1   
    28   23   31 1   
    29   24   25 1   
    30   24   32 1   
    31   24   33 1   
    32   25   26 1   
    33   25   34 1   
    34   25   35 1   
    35   26   27 1   
    36   26   36 1   
    37   26   37 1   
    38   27   38 1   
    39   27   39 1   
    40   27   40 1   
    41   41   42 1   
    42   41   49 1   
    43   42   43 1   
    44   42   45 1   
    45   42   50 1   
    46   43   44 2   
    47   43   53 1   
    48   45   46 1   
    49   45   51 1   
    50   45   52 1   
    51   46   47 1   
    52   46   48 1   
    53   53   54 1   
    54   53   57 1   
    55   54   55 1   
    56   54   58 1   
    57   54   59 1   
    58   55   56 2   
    59   55   60 1   
    60   60   61 1   
    61   60   68 1   
    62   61   62 1   
    63   61   64 1   
    64   61   69 1   
    65   62   63 2   
    66   62   74 1   
    67   64   65 1   
    68   64   70 1   
    69   64   71 1   
    70   65   66 1   
    71   65   67 2   
    72   66   72 1   
    73   66   73 1   
    74   74   75 1   
    75   74   78 1   
    76   75   76 1   
    77   75   79 1   
    78   75   80 1   
    79   76   77 2   
    80   76   81 1   
    81   81   82 1   
    82   81   93 1   
    83   82   83 1   
    84   82   85 1   
    85   82   94 1   
    86   83   84 2   
    87   83  102 1   
    88   85   86 1   
    89   85   95 1   
    90   85   96 1   
    91   86   87 ar  
    92   86   88 ar  
    93   87   89 ar  
    94   87   97 1   
    95   88   90 ar  
    96   88   98 1   
    97   89   91 ar  
    98   89   99 1   
    99   90   91 ar  
   100   90  100 1   
   101   91   92 1   
   102   92  101 1   
   103  102  103 1   
   104  102  110 1   
   105  103  104 1   
   106  103  106 1   
   107  103  111 1   
   108  104  105 2   
   109  104  121 1   
   110  106  107 1   
   111  106  108 1   
   112  106  112 1   
   113  107  109 1   
   114  107  113 1   
   115  107  114 1   
   116  108  115 1   
   117  108  116 1   
   118  108  117 1   
   119  109  118 1   
   120  109  119 1   
   121  109  120 1   
   122  121  122 1   
   123  121  127 1   
   124  122  123 1   
   125  122  125 1   
   126  122  128 1   
   127  123  124 2   
   128  123  132 1   
   129  125  126 1   
   130  125  129 1   
   131  125  130 1   
   132  126  131 1   
   133  132  133 1   
   134  132  137 1   
   135  133  134 1   
   136  133  136 1   
   137  133  138 1   
   138  134  135 2   
   139  134  142 1   
   140  136  139 1   
   141  136  140 1   
   142  136  141 1   
   143  142  143 1   
   144  142  147 1   
   145  143  144 1   
   146  143  146 1   
   147  143  148 1   
   148  144  145 2   
   149  144  152 1   
   150  146  149 1   
   151  146  150 1   
   152  146  151 1   
   153  152  153 1   
   154  152  161 1   
   155  153  154 1   
   156  153  156 1   
   157  153  162 1   
   158  154  155 2   
   159  154  167 1   
   160  156  157 1   
   161  156  163 1   
   162  156  164 1   
   163  157  158 1   
   164  157  165 1   
   165  157  166 1   
   166  158  159 1   
   167  158  160 1   
   168  167  168 1   
   169  167  172 1   
   170  168  169 1   
   171  168  170 1   
   172  168  171 1   
   173  174  175 1   
   174  174  176 1   
   175  177  178 1   
   176  177  179 1   
   177  180  181 1   
   178  180  182 1   
@<TRIPOS>SUBSTRUCTURE
     1 MOL         1 TEMP              0 ****  ****    0 ROOT
