@<TRIPOS>MOLECULE
MOL
  186   183     1     0     0
SMALL
resp


@<TRIPOS>ATOM
      1 C1         -0.5090    2.1660    6.1170 c3        1 MOL     -0.146501
      2 C2         -0.7720    2.1370    4.6190 c         1 MOL      0.666939
      3 O1          0.1280    2.2680    3.7650 o         1 MOL     -0.533970
      4 H1          0.3920    1.5930    6.3380 hc        1 MOL      0.030318
      5 H2         -0.3710    3.1970    6.4420 hc        1 MOL      0.030318
      6 H3         -1.3560    1.7280    6.6440 hc        1 MOL      0.030318
      7 N1         -2.0770    1.8450    4.2780 n         1 MOL     -0.593078
      8 C3         -2.7140    1.7800    2.9910 c3        1 MOL      0.122300
      9 C4         -3.2110    3.1300    2.4670 c         1 MOL      0.446198
     10 O2         -4.2410    3.6710    2.8960 o         1 MOL     -0.567215
     11 C5         -3.8060    0.6870    3.0160 c3        1 MOL     -0.248360
     12 C6         -4.5810    0.5150    1.6980 c         1 MOL      0.841081
     13 O3         -4.1630    0.9610    0.6080 o         1 MOL     -0.698751
     14 O4         -5.7240    0.0690    1.6960 o         1 MOL     -0.698751
     15 H4         -2.7650    1.9440    5.0040 hn        1 MOL      0.324567
     16 H5         -1.8520    1.5040    2.3700 h1        1 MOL     -0.004102
     17 H6         -4.4950    0.9850    3.8040 hc        1 MOL      0.045920
     18 H7         -3.3930   -0.3010    3.2420 hc        1 MOL      0.045920
     19 N2         -2.6120    3.6610    1.3950 n         1 MOL     -0.039408
     20 C7         -2.7480    5.0360    0.9800 c3        1 MOL     -0.479934
     21 C8         -3.3140    5.1760   -0.4020 c         1 MOL      0.710824
     22 O5         -3.4990    6.2690   -0.8900 o         1 MOL     -0.614108
     23 C9         -1.4510    5.8730    1.1740 c3        1 MOL      0.396268
     24 C10        -0.3550    5.3660    0.2350 c3        1 MOL     -0.052694
     25 C11        -1.0780    5.8060    2.7520 c3        1 MOL     -0.180272
     26 C12         0.8700    6.2100    0.0800 c3        1 MOL     -0.389279
     27 H8         -1.8940    3.1350    0.9120 hn        1 MOL      0.144926
     28 H9         -3.3550    5.5180    1.7470 h1        1 MOL      0.152268
     29 H10        -1.6600    6.9060    0.9110 hc        1 MOL     -0.069940
     30 H11        -0.6960    5.2580   -0.7880 hc        1 MOL      0.083717
     31 H12        -0.0540    4.3920    0.6180 hc        1 MOL      0.083717
     32 H13        -0.7680    4.8280    3.1080 hc        1 MOL      0.022096
     33 H14        -0.2450    6.4790    2.8960 hc        1 MOL      0.022096
     34 H15        -1.8790    6.2830    3.3190 hc        1 MOL      0.022096
     35 H16         1.4430    5.8360   -0.7740 hc        1 MOL      0.088886
     36 H17         0.6440    7.2510   -0.1290 hc        1 MOL      0.088886
     37 H18         1.5150    6.0750    0.9470 hc        1 MOL      0.088886
     38 N3         -3.8080    4.1160   -1.0180 n         1 MOL     -0.513955
     39 C13        -4.7510    4.1120   -2.2270 c3        1 MOL      0.046364
     40 C14        -6.0850    3.4150   -2.0310 c         1 MOL      0.474886
     41 O6         -7.0110    3.5500   -2.8410 o         1 MOL     -0.554615
     42 C15        -4.0170    3.7160   -3.4600 c3        1 MOL     -0.299225
     43 C16        -3.2810    2.3790   -3.4520 c         1 MOL      0.835107
     44 O7         -2.7400    2.0800   -4.5230 o         1 MOL     -0.712180
     45 O8         -3.4050    1.5970   -2.4870 o         1 MOL     -0.712180
     46 H19        -3.5450    3.2220   -0.6140 hn        1 MOL      0.242709
     47 H20        -5.0300    5.1320   -2.4960 h1        1 MOL      0.114871
     48 H21        -3.3340    4.5250   -3.7010 hc        1 MOL      0.077342
     49 H22        -4.6110    3.8490   -4.3620 hc        1 MOL      0.077342
     50 N4         -6.2820    2.8100   -0.8300 n         1 MOL     -0.362698
     51 C17        -7.5430    2.1890   -0.2970 c3        1 MOL     -0.229016
     52 C18        -8.0090    0.8270   -0.8150 c         1 MOL      0.617550
     53 O9         -9.1830    0.6240   -0.7110 o         1 MOL     -0.626273
     54 H23        -5.4740    2.5830   -0.2790 hn        1 MOL      0.305997
     55 H24        -8.3580    2.8780   -0.5470 h1        1 MOL      0.121790
     56 H25        -7.5180    2.1780    0.7890 h1        1 MOL      0.121790
     57 N5         -7.1590   -0.0870   -1.2510 n         1 MOL     -0.305840
     58 C19        -7.4550   -1.4390   -1.6910 c3        1 MOL      0.005035
     59 C20        -7.5830   -2.4690   -0.5030 c         1 MOL      0.427260
     60 O10        -7.9750   -3.6310   -0.6640 o         1 MOL     -0.598270
     61 C21        -6.3780   -2.0090   -2.7240 c3        1 MOL     -0.143885
     62 C22        -4.9540   -1.7210   -2.2980 c         1 MOL      0.717894
     63 O11        -4.0790   -1.4520   -3.1720 o         1 MOL     -0.735520
     64 O12        -4.7170   -1.4150   -1.1260 o         1 MOL     -0.735520
     65 H26        -6.2110    0.2610   -1.1720 hn        1 MOL      0.268212
     66 H27        -8.3850   -1.4710   -2.2530 h1        1 MOL      0.086638
     67 H28        -6.6360   -1.7450   -3.7510 hc        1 MOL      0.051577
     68 H29        -6.4180   -3.0950   -2.6510 hc        1 MOL      0.051577
     69 N6         -7.1380   -2.1020    0.6840 n         1 MOL     -0.170619
     70 C23        -7.1290   -2.9380    1.9490 c3        1 MOL     -0.025161
     71 C24        -5.8300   -3.7380    1.9100 c         1 MOL      0.477194
     72 O13        -5.7670   -4.7780    2.5910 o         1 MOL     -0.588523
     73 H30        -6.7770   -1.1620    0.8200 hn        1 MOL      0.184341
     74 H31        -8.0210   -3.5710    1.9600 h1        1 MOL      0.060930
     75 H32        -7.1820   -2.3120    2.8350 h1        1 MOL      0.060930
     76 N7         -4.7500   -3.2410    1.2450 n         1 MOL     -0.187457
     77 C25        -3.4160   -3.8970    1.1290 c3        1 MOL     -0.040200
     78 C26        -2.2870   -2.9160    1.2980 c         1 MOL      0.703170
     79 O14        -2.4180   -1.7280    1.1600 o         1 MOL     -0.651906
     80 C27        -3.3450   -4.5720   -0.2330 c3        1 MOL      0.118818
     81 C28        -4.3250   -5.6780   -0.4470 c3        1 MOL     -0.370675
     82 C29        -4.1530   -6.3560   -1.7750 c         1 MOL      0.782902
     83 N8         -4.8870   -7.4270   -1.9950 n         1 MOL     -0.872878
     84 O15        -3.4920   -5.9510   -2.6950 o         1 MOL     -0.574678
     85 H33        -4.9200   -2.4010    0.7220 hn        1 MOL      0.112209
     86 H34        -3.3930   -4.6260    1.9400 h1        1 MOL      0.040995
     87 H35        -2.3270   -4.9200   -0.4370 hc        1 MOL      0.016504
     88 H36        -3.5710   -3.7890   -0.9540 hc        1 MOL      0.016504
     89 H37        -5.3040   -5.2120   -0.3820 hc        1 MOL      0.105082
     90 H38        -4.1860   -6.4080    0.3430 hc        1 MOL      0.105082
     91 H39        -5.5850   -7.7830   -1.3500 hn        1 MOL      0.362722
     92 H40        -5.0220   -7.7010   -2.9570 hn        1 MOL      0.362722
     93 N9         -1.0830   -3.4520    1.5660 n         1 MOL     -0.617295
     94 C30         0.1790   -2.7180    1.8300 c3        1 MOL      0.001360
     95 C31         1.4070   -3.2860    1.1250 c         1 MOL      0.658791
     96 O16         1.9390   -4.2760    1.6620 o         1 MOL     -0.596655
     97 C32         0.5480   -2.5630    3.3080 c3        1 MOL      0.253015
     98 C33         1.7880   -1.8480    3.6500 c3        1 MOL     -0.218064
     99 C34        -0.5420   -1.6920    3.9630 c3        1 MOL     -0.218064
    100 H41        -1.1320   -4.4580    1.6710 hn        1 MOL      0.297623
    101 H42         0.0650   -1.6900    1.4650 h1        1 MOL      0.112407
    102 H43         0.7300   -3.5510    3.7430 hc        1 MOL     -0.040427
    103 H44         1.9940   -1.8690    4.7220 hc        1 MOL      0.046135
    104 H45         2.6790   -2.1420    3.0940 hc        1 MOL      0.046135
    105 H46         1.5510   -0.8440    3.3070 hc        1 MOL      0.046135
    106 H47        -0.5560   -0.7300    3.4680 hc        1 MOL      0.046135
    107 H48        -1.4040   -2.3590    4.0560 hc        1 MOL      0.046135
    108 H49        -0.2730   -1.5580    5.0120 hc        1 MOL      0.046135
    109 N10         1.9740   -2.7070    0.0730 n         1 MOL     -0.521203
    110 C35         3.2100   -3.0610   -0.5690 c3        1 MOL      0.296376
    111 C36         4.4860   -2.3310   -0.0370 c         1 MOL      0.306840
    112 O17         4.4080   -1.4480    0.8270 o         1 MOL     -0.282920
    113 C37         3.0000   -2.9150   -2.0820 c3        1 MOL     -0.551982
    114 C38         3.0770   -1.4210   -2.4730 c         1 MOL      0.624297
    115 N11         2.0350   -0.7150   -2.3200 n         1 MOL     -0.737446
    116 O18         4.1630   -0.9700   -2.8970 o         1 MOL     -0.545399
    117 H50         1.6740   -1.7470   -0.0660 hn        1 MOL      0.257364
    118 H51         3.3200   -4.1360   -0.5150 h1        1 MOL      0.027733
    119 H52         1.9790   -3.2000   -2.3300 hc        1 MOL      0.178005
    120 H53         3.8060   -3.3520   -2.6690 hc        1 MOL      0.178005
    121 H54         1.1650   -0.9860   -1.8870 hn        1 MOL      0.376288
    122 H55         2.1270    0.2530   -2.5850 hn        1 MOL      0.376288
    123 N12         5.6580   -2.6900   -0.5270 n         1 MOL     -0.521567
    124 C39         6.9300   -2.0550   -0.1560 c3        1 MOL      0.206231
    125 C40         6.9430   -0.5210   -0.1750 c         1 MOL      0.620682
    126 O19         7.4320    0.0990    0.8030 o         1 MOL     -0.553895
    127 C41         8.0900   -2.7280   -0.8910 c3        1 MOL     -0.215764
    128 C42         9.4320   -2.2460   -0.3610 ca        1 MOL     -0.034606
    129 C43         9.9590   -2.6730    0.9210 ca        1 MOL     -0.079864
    130 C44        10.1900   -1.4230   -1.2040 ca        1 MOL     -0.079864
    131 C45        11.2580   -2.3140    1.2740 ca        1 MOL     -0.349071
    132 C46        11.4940   -1.0140   -0.8270 ca        1 MOL     -0.349071
    133 C47        12.0360   -1.4500    0.4400 ca        1 MOL      0.444423
    134 O20        13.2330   -1.0160    0.8830 oh        1 MOL     -0.579039
    135 H56         5.7340   -3.3880   -1.2520 hn        1 MOL      0.308756
    136 H57         7.0600   -2.2760    0.9050 h1        1 MOL      0.033796
    137 H58         8.0490   -2.4770   -1.9490 hc        1 MOL      0.076623
    138 H59         7.9850   -3.8040   -0.8250 hc        1 MOL      0.076623
    139 H60         9.3350   -3.1780    1.6500 ha        1 MOL      0.127946
    140 H61         9.7340   -1.0890   -2.1260 ha        1 MOL      0.127946
    141 H62        11.5300   -2.5310    2.2980 ha        1 MOL      0.164953
    142 H63        11.9880   -0.3200   -1.4980 ha        1 MOL      0.164953
    143 H64        13.5900   -0.2600    0.4200 ho        1 MOL      0.414405
    144 N13         6.4050    0.0340   -1.2310 n         1 MOL     -0.302255
    145 C48         6.2680    1.4760   -1.4220 c3        1 MOL     -0.240686
    146 C49         5.3650    2.0890   -0.3970 c         1 MOL      0.378424
    147 O21         5.4220    3.2570   -0.1680 o         1 MOL     -0.488818
    148 C50         5.7710    1.8480   -2.8750 c3        1 MOL      0.403616
    149 C51         6.7820    1.5290   -3.9440 c3        1 MOL     -0.253695
    150 C52         7.6620    2.7450   -4.1990 c         1 MOL      0.736694
    151 O22         8.3520    3.1600   -3.2610 o         1 MOL     -0.745952
    152 O23         7.6280    3.3390   -5.3190 o         1 MOL     -0.745952
    153 H65         5.9070   -0.4970   -1.9310 hn        1 MOL      0.170248
    154 H66         7.2870    1.8620   -1.2870 h1        1 MOL      0.161895
    155 H67         5.5260    2.9130   -2.9660 hc        1 MOL     -0.056921
    156 H68         4.8070    1.3750   -3.0840 hc        1 MOL     -0.056921
    157 H69         6.2040    1.3210   -4.8440 hc        1 MOL     -0.007736
    158 H70         7.4400    0.6880   -3.7090 hc        1 MOL     -0.007736
    159 N14         4.5270    1.2410    0.3170 n         1 MOL     -0.154682
    160 C53         3.6950    1.7300    1.4060 c3        1 MOL     -0.065111
    161 C54         4.2340    1.4720    2.8270 c         1 MOL      0.420742
    162 O24         3.8490    2.1190    3.8320 o         1 MOL     -0.557575
    163 C55         2.2810    1.0880    1.2740 c3        1 MOL      0.138358
    164 C56         1.5260    1.8220    0.1800 c3        1 MOL     -0.104463
    165 C57         0.0940    1.1350   -0.0190 c         1 MOL      0.816042
    166 O25        -0.9020    1.8900   -0.0760 o         1 MOL     -0.747382
    167 O26         0.0480   -0.0870   -0.2670 o         1 MOL     -0.747382
    168 H71         4.5600    0.2370    0.2380 hn        1 MOL      0.206131
    169 H72         3.7130    2.8250    1.4820 h1        1 MOL      0.114951
    170 H73         1.7530    1.2280    2.2140 hc        1 MOL     -0.001307
    171 H74         2.3580    0.0360    0.9910 hc        1 MOL     -0.001307
    172 H75         2.0560    1.7660   -0.7710 hc        1 MOL     -0.016378
    173 H76         1.3280    2.8390    0.5260 hc        1 MOL     -0.016378
    174 N15         5.2230    0.5460    2.9810 n         1 MOL     -0.088358
    175 C58         5.9530    0.2180    4.2640 c3        1 MOL     -0.425842
    176 H77         6.6970   -0.5550    4.0710 h1        1 MOL      0.142811
    177 H78         6.4500    1.1130    4.6390 h1        1 MOL      0.142811
    178 H79         5.2410   -0.1410    5.0070 h1        1 MOL      0.142811
    179 H80         5.5190    0.0270    2.1680 hn        1 MOL      0.041763
    180 Ca1        -2.5150   -0.2300   -1.0120 Ca        1 MOL      1.717107
    181 O27        -1.2310   -2.4530   -2.2290 oh        1 MOL     -0.806628
    182 H81        -1.4830   -3.3270   -2.5420 ho        1 MOL      0.375098
    183 H82        -0.8370   -2.0330   -3.0000 ho        1 MOL      0.375098
    184 O28        -0.8400    0.4780   -3.4120 oh        1 MOL     -0.806628
    185 H83        -0.3870   -0.1860   -3.9330 ho        1 MOL      0.375098
    186 H84        -1.3390    0.9780   -4.0490 ho        1 MOL      0.375098
@<TRIPOS>BOND
     1    1    2 1   
     2    1    4 1   
     3    1    5 1   
     4    1    6 1   
     5    2    3 2   
     6    2    7 1   
     7    7    8 1   
     8    7   15 1   
     9    8    9 1   
    10    8   11 1   
    11    8   16 1   
    12    9   10 2   
    13    9   19 1   
    14   11   12 1   
    15   11   17 1   
    16   11   18 1   
    17   12   13 1   
    18   12   14 1   
    19   19   20 1   
    20   19   27 1   
    21   20   21 1   
    22   20   23 1   
    23   20   28 1   
    24   21   22 2   
    25   21   38 1   
    26   23   24 1   
    27   23   25 1   
    28   23   29 1   
    29   24   26 1   
    30   24   30 1   
    31   24   31 1   
    32   25   32 1   
    33   25   33 1   
    34   25   34 1   
    35   26   35 1   
    36   26   36 1   
    37   26   37 1   
    38   38   39 1   
    39   38   46 1   
    40   39   40 1   
    41   39   42 1   
    42   39   47 1   
    43   40   41 2   
    44   40   50 1   
    45   42   43 1   
    46   42   48 1   
    47   42   49 1   
    48   43   44 1   
    49   43   45 1   
    50   50   51 1   
    51   50   54 1   
    52   51   52 1   
    53   51   55 1   
    54   51   56 1   
    55   52   53 2   
    56   52   57 1   
    57   57   58 1   
    58   57   65 1   
    59   58   59 1   
    60   58   61 1   
    61   58   66 1   
    62   59   60 2   
    63   59   69 1   
    64   61   62 1   
    65   61   67 1   
    66   61   68 1   
    67   62   63 1   
    68   62   64 1   
    69   69   70 1   
    70   69   73 1   
    71   70   71 1   
    72   70   74 1   
    73   70   75 1   
    74   71   72 2   
    75   71   76 1   
    76   76   77 1   
    77   76   85 1   
    78   77   78 1   
    79   77   80 1   
    80   77   86 1   
    81   78   79 2   
    82   78   93 1   
    83   80   81 1   
    84   80   87 1   
    85   80   88 1   
    86   81   82 1   
    87   81   89 1   
    88   81   90 1   
    89   82   83 1   
    90   82   84 2   
    91   83   91 1   
    92   83   92 1   
    93   93   94 1   
    94   93  100 1   
    95   94   95 1   
    96   94   97 1   
    97   94  101 1   
    98   95   96 2   
    99   95  109 1   
   100   97   98 1   
   101   97   99 1   
   102   97  102 1   
   103   98  103 1   
   104   98  104 1   
   105   98  105 1   
   106   99  106 1   
   107   99  107 1   
   108   99  108 1   
   109  109  110 1   
   110  109  117 1   
   111  110  111 1   
   112  110  113 1   
   113  110  118 1   
   114  111  112 2   
   115  111  123 1   
   116  113  114 1   
   117  113  119 1   
   118  113  120 1   
   119  114  115 1   
   120  114  116 2   
   121  115  121 1   
   122  115  122 1   
   123  123  124 1   
   124  123  135 1   
   125  124  125 1   
   126  124  127 1   
   127  124  136 1   
   128  125  126 2   
   129  125  144 1   
   130  127  128 1   
   131  127  137 1   
   132  127  138 1   
   133  128  129 ar  
   134  128  130 ar  
   135  129  131 ar  
   136  129  139 1   
   137  130  132 ar  
   138  130  140 1   
   139  131  133 ar  
   140  131  141 1   
   141  132  133 ar  
   142  132  142 1   
   143  133  134 1   
   144  134  143 1   
   145  144  145 1   
   146  144  153 1   
   147  145  146 1   
   148  145  148 1   
   149  145  154 1   
   150  146  147 2   
   151  146  159 1   
   152  148  149 1   
   153  148  155 1   
   154  148  156 1   
   155  149  150 1   
   156  149  157 1   
   157  149  158 1   
   158  150  151 1   
   159  150  152 1   
   160  159  160 1   
   161  159  168 1   
   162  160  161 1   
   163  160  163 1   
   164  160  169 1   
   165  161  162 2   
   166  161  174 1   
   167  163  164 1   
   168  163  170 1   
   169  163  171 1   
   170  164  165 1   
   171  164  172 1   
   172  164  173 1   
   173  165  166 1   
   174  165  167 1   
   175  174  175 1   
   176  174  179 1   
   177  175  176 1   
   178  175  177 1   
   179  175  178 1   
   180  181  182 1   
   181  181  183 1   
   182  184  185 1   
   183  184  186 1   
@<TRIPOS>SUBSTRUCTURE
     1 MOL         1 TEMP              0 ****  ****    0 ROOT
