@<TRIPOS>MOLECULE
MOL
  179   176     1     0     0
SMALL
resp


@<TRIPOS>ATOM
      1 C1          1.8540    3.9030    4.3170 c3        1 MOL     -0.311798
      2 C2          1.1020    3.3530    3.1330 c         1 MOL      0.479138
      3 O1          1.6550    3.1440    2.0100 o         1 MOL     -0.518750
      4 H1          1.6040    4.9550    4.4480 hc        1 MOL      0.094296
      5 H2          1.5770    3.3490    5.2140 hc        1 MOL      0.094296
      6 H3          2.9270    3.8030    4.1450 hc        1 MOL      0.094296
      7 N1         -0.2060    2.9790    3.3130 n         1 MOL     -0.518220
      8 C3         -1.0730    2.5780    2.1890 c3        1 MOL      0.047964
      9 C4         -1.8170    3.8000    1.6840 c         1 MOL      0.488035
     10 O2         -3.0390    3.8840    1.9690 o         1 MOL     -0.474540
     11 C5         -2.0360    1.4040    2.6240 c3        1 MOL     -0.049811
     12 C6         -2.9170    0.9210    1.4660 c         1 MOL      0.865908
     13 O3         -3.9880    0.3600    1.7920 o         1 MOL     -0.787618
     14 O4         -2.4630    0.9100    0.2970 o         1 MOL     -0.787618
     15 H4         -0.6410    3.0120    4.2250 hn        1 MOL      0.335324
     16 H5         -0.4180    2.1380    1.4460 h1        1 MOL     -0.023329
     17 H6         -2.6980    1.8240    3.3780 hc        1 MOL      0.002955
     18 H7         -1.4230    0.6030    3.0290 hc        1 MOL      0.002955
     19 N2         -1.1330    4.6450    0.9010 n         1 MOL     -0.448090
     20 C7         -1.5400    5.9900    0.4420 c3        1 MOL      0.026724
     21 C8         -2.7320    5.9430   -0.4750 c         1 MOL      0.378836
     22 O5         -3.5760    6.8710   -0.4920 o         1 MOL     -0.505704
     23 C9         -0.4400    6.8950   -0.1050 c3        1 MOL     -0.096000
     24 C10         0.7210    6.9280    0.8900 c3        1 MOL      0.544945
     25 C11         1.7900    7.8100    0.2560 c3        1 MOL     -0.172417
     26 C12         3.1210    7.9570    1.0670 c3        1 MOL     -0.076762
     27 N3          2.9720    8.7310    2.3500 n4        1 MOL     -0.405927
     28 H8         -0.1790    4.3330    0.7620 hn        1 MOL      0.357012
     29 H9         -1.8880    6.5210    1.3320 h1        1 MOL      0.084061
     30 H10        -0.7980    7.9240   -0.1130 hc        1 MOL      0.028228
     31 H11        -0.0430    6.6230   -1.0790 hc        1 MOL      0.028228
     32 H12         1.0120    5.8970    1.0380 hc        1 MOL     -0.147524
     33 H13         0.3550    7.3380    1.8320 hc        1 MOL     -0.147524
     34 H14         1.4520    8.8440    0.1900 hc        1 MOL      0.060661
     35 H15         2.0510    7.4290   -0.7330 hc        1 MOL      0.060661
     36 H16         3.8290    8.6160    0.5590 hx        1 MOL      0.139891
     37 H17         3.6530    7.0150    1.1420 hx        1 MOL      0.139891
     38 H18         3.8530    9.0100    2.7610 hn        1 MOL      0.338650
     39 H19         2.4660    9.6090    2.2880 hn        1 MOL      0.338650
     40 H20         2.4380    8.1580    2.9870 hn        1 MOL      0.338650
     41 N4         -2.8900    4.8150   -1.2550 n         1 MOL     -0.179375
     42 C13        -4.0120    4.6700   -2.1760 c3        1 MOL     -0.118583
     43 C14        -5.3180    4.1630   -1.5060 c         1 MOL      0.427292
     44 O6         -6.4350    4.2190   -2.0600 o         1 MOL     -0.527437
     45 C15        -3.5000    3.8050   -3.3510 c3        1 MOL     -0.068483
     46 C16        -2.7500    2.4810   -3.0170 c         1 MOL      0.646996
     47 O7         -3.3760    1.4550   -2.6320 o         1 MOL     -0.694777
     48 O8         -1.5000    2.4960   -3.0200 o         1 MOL     -0.694777
     49 H21        -2.1800    4.0970   -1.3450 hn        1 MOL      0.198494
     50 H22        -4.2870    5.6500   -2.5720 h1        1 MOL      0.114038
     51 H23        -2.8270    4.3790   -3.9990 hc        1 MOL      0.032751
     52 H24        -4.3060    3.5400   -4.0250 hc        1 MOL      0.032751
     53 N5         -5.1400    3.5010   -0.3560 n         1 MOL     -0.016334
     54 C17        -6.2960    2.8330    0.3150 c3        1 MOL     -0.360409
     55 C18        -6.7490    1.4610   -0.2610 c         1 MOL      0.527968
     56 O9         -7.8860    1.0280    0.0560 o         1 MOL     -0.543958
     57 H25        -4.3090    3.6450    0.1940 hn        1 MOL      0.100672
     58 H26        -7.0970    3.5640    0.3630 h1        1 MOL      0.162694
     59 H27        -5.9840    2.6090    1.3360 h1        1 MOL      0.162694
     60 N6         -5.9460    0.7130   -1.1200 n         1 MOL     -0.258270
     61 C19        -6.3790   -0.6480   -1.5380 c3        1 MOL      0.060100
     62 C20        -6.5170   -1.7070   -0.4170 c         1 MOL      0.273881
     63 O10        -7.1050   -2.7710   -0.6570 o         1 MOL     -0.487977
     64 C21        -5.5920   -1.1890   -2.7450 c3        1 MOL     -0.043175
     65 C22        -4.3020   -2.0090   -2.4410 c         1 MOL      0.536269
     66 N7         -4.0540   -3.0230   -3.2620 n         1 MOL     -0.678785
     67 O11        -3.5090   -1.7700   -1.4780 o         1 MOL     -0.593093
     68 H28        -5.0600    1.0630   -1.4380 hn        1 MOL      0.147074
     69 H29        -7.4110   -0.5190   -1.8560 h1        1 MOL      0.093324
     70 H30        -5.3290   -0.3350   -3.3610 hc        1 MOL      0.021948
     71 H31        -6.2420   -1.8650   -3.3040 hc        1 MOL      0.021948
     72 H32        -4.7680   -3.2840   -3.9270 hn        1 MOL      0.354179
     73 H33        -3.2500   -3.6000   -3.0910 hn        1 MOL      0.354179
     74 N8         -5.8380   -1.4740    0.7290 n         1 MOL     -0.064261
     75 C23        -5.8830   -2.3820    1.8620 c3        1 MOL     -0.209652
     76 C24        -4.4980   -2.9140    2.3050 c         1 MOL      0.725813
     77 O12        -4.4530   -3.6460    3.2490 o         1 MOL     -0.599097
     78 H34        -5.2940   -0.6290    0.7920 hn        1 MOL      0.222654
     79 H35        -6.6050   -3.1800    1.6630 h1        1 MOL      0.108401
     80 H36        -6.3310   -1.8910    2.7250 h1        1 MOL      0.108401
     81 N9         -3.3900   -2.5870    1.6040 n         1 MOL     -0.596840
     82 C25        -2.1320   -3.4050    1.5510 c3        1 MOL      0.090497
     83 C26        -0.9200   -2.5660    1.0660 c         1 MOL      0.596051
     84 O13        -1.0780   -1.6780    0.1610 o         1 MOL     -0.674523
     85 C27        -2.3710   -4.4940    0.4500 c3        1 MOL     -0.277885
     86 C28        -3.3940   -5.5090    0.7400 ca        1 MOL      0.362627
     87 C29        -4.6570   -5.4090    0.1080 ca        1 MOL     -0.351730
     88 C30        -3.0510   -6.7090    1.4550 ca        1 MOL     -0.351730
     89 C31        -5.6160   -6.3710    0.3730 ca        1 MOL     -0.168993
     90 C32        -4.0420   -7.7360    1.6390 ca        1 MOL     -0.168993
     91 C33        -5.3430   -7.5890    1.0870 ca        1 MOL      0.287630
     92 O14        -6.2500   -8.6060    1.2050 oh        1 MOL     -0.500133
     93 H37        -3.4670   -1.7960    0.9850 hn        1 MOL      0.362023
     94 H38        -2.0440   -3.8340    2.5500 h1        1 MOL      0.088963
     95 H39        -1.4370   -5.0480    0.3270 hc        1 MOL      0.058482
     96 H40        -2.5950   -3.9360   -0.4590 hc        1 MOL      0.058482
     97 H41        -4.9680   -4.5380   -0.4470 ha        1 MOL      0.181133
     98 H42        -2.0840   -6.7190    1.9510 ha        1 MOL      0.181133
     99 H43        -6.6440   -6.2530    0.0470 ha        1 MOL      0.123086
    100 H44        -3.7400   -8.6500    2.1360 ha        1 MOL      0.123086
    101 H45        -5.9720   -9.4500    1.5440 ho        1 MOL      0.371640
    102 N10         0.2480   -2.7660    1.6800 n         1 MOL     -0.303330
    103 C34         1.6080   -2.2840    1.2710 c3        1 MOL      0.001228
    104 C35         2.6610   -3.4480    0.9600 c         1 MOL      0.453139
    105 O15         2.4880   -4.5680    1.3700 o         1 MOL     -0.538128
    106 C36         2.1180   -1.4200    2.4980 c3        1 MOL     -0.060960
    107 C37         2.0090   -2.0530    3.8610 c3        1 MOL      0.225130
    108 C38         1.4060   -0.1100    2.5040 c3        1 MOL     -0.803498
    109 C39         2.6890   -1.2230    4.9540 c3        1 MOL     -0.196162
    110 H46         0.2880   -3.4130    2.4580 hn        1 MOL      0.187857
    111 H47         1.5630   -1.6100    0.4160 h1        1 MOL      0.081452
    112 H48         3.1850   -1.2410    2.3220 hc        1 MOL      0.023652
    113 H49         2.5130   -3.0120    3.9430 hc        1 MOL     -0.010286
    114 H50         0.9600   -2.1770    4.1480 hc        1 MOL     -0.010286
    115 H51         0.3590   -0.2510    2.7510 hc        1 MOL      0.265890
    116 H52         1.8910    0.5810    3.2010 hc        1 MOL      0.265890
    117 H53         1.3440    0.4510    1.5660 hc        1 MOL      0.265890
    118 H54         2.8030   -1.9290    5.7660 hc        1 MOL      0.040734
    119 H55         3.6160   -0.7900    4.5720 hc        1 MOL      0.040734
    120 H56         2.0490   -0.4640    5.4130 hc        1 MOL      0.040734
    121 N11         3.7030   -3.1400    0.2470 n         1 MOL     -0.061744
    122 C40         4.7600   -3.8720   -0.4050 c3        1 MOL     -0.029849
    123 C41         6.1640   -3.2610   -0.0790 c         1 MOL      0.409453
    124 O16         6.2380   -2.1900    0.5560 o         1 MOL     -0.403425
    125 C42         4.4790   -3.7070   -1.9790 c3        1 MOL     -0.067634
    126 O17         4.5350   -2.3300   -2.2510 oh        1 MOL     -0.442779
    127 H57         3.7620   -2.1670   -0.0050 hn        1 MOL     -0.026190
    128 H58         4.7510   -4.8920   -0.0130 h1        1 MOL      0.079472
    129 H59         3.4670   -4.0410   -2.2250 h1        1 MOL      0.086929
    130 H60         5.1670   -4.3550   -2.5250 h1        1 MOL      0.086929
    131 H61         3.7100   -1.9050   -2.4790 ho        1 MOL      0.375618
    132 N12         7.2540   -3.9230   -0.4960 n         1 MOL     -0.376033
    133 C43         8.5610   -3.3110   -0.3350 c3        1 MOL      0.078264
    134 C44         8.7060   -1.9540   -0.9560 c         1 MOL      0.455137
    135 O18         9.3460   -1.0670   -0.3120 o         1 MOL     -0.514386
    136 C45         9.6600   -4.2650   -0.8170 c3        1 MOL     -0.188674
    137 H62         7.1610   -4.8430   -0.9070 hn        1 MOL      0.293607
    138 H63         8.7820   -3.1950    0.7270 h1        1 MOL      0.090764
    139 H64        10.6520   -3.8130   -0.7650 hc        1 MOL      0.060959
    140 H65         9.6470   -5.2410   -0.3490 hc        1 MOL      0.060959
    141 H66         9.4300   -4.5150   -1.8550 hc        1 MOL      0.060959
    142 N13         8.1830   -1.7120   -2.1170 n         1 MOL     -0.389377
    143 C46         8.0490   -0.3640   -2.7550 c3        1 MOL      0.131407
    144 C47         7.3650    0.6750   -1.7730 c         1 MOL      0.367393
    145 O19         7.9120    1.7310   -1.4060 o         1 MOL     -0.504973
    146 C48         7.2130   -0.4880   -4.0710 c3        1 MOL     -0.330463
    147 H67         7.7960   -2.5420   -2.5500 hn        1 MOL      0.281790
    148 H68         9.0230    0.1230   -2.8350 h1        1 MOL      0.077561
    149 H69         6.2440   -0.9120   -3.8230 hc        1 MOL      0.095435
    150 H70         6.9600    0.5130   -4.4450 hc        1 MOL      0.095435
    151 H71         7.6780   -1.1030   -4.8330 hc        1 MOL      0.095435
    152 N14         6.1450    0.3480   -1.3330 n         1 MOL     -0.083407
    153 C49         5.2790    1.2880   -0.5420 c3        1 MOL     -0.063716
    154 C50         5.7570    1.4910    0.8940 c         1 MOL      0.368668
    155 O20         5.4740    2.5730    1.4410 o         1 MOL     -0.563376
    156 C51         3.8690    0.7450   -0.4660 c3        1 MOL     -0.024177
    157 C52         3.1480    0.9220   -1.8360 c3        1 MOL     -0.167667
    158 C53         1.7550    0.3280   -1.8430 c         1 MOL      0.723088
    159 O21         0.7580    1.1080   -1.5960 o         1 MOL     -0.718708
    160 O22         1.5600   -0.8520   -2.1600 o         1 MOL     -0.718708
    161 H72         5.7690   -0.5540   -1.6000 hn        1 MOL      0.028079
    162 H73         5.2750    2.2660   -1.0350 h1        1 MOL      0.120882
    163 H74         3.3260    1.4800    0.1310 hc        1 MOL      0.103844
    164 H75         3.6260   -0.2520   -0.0960 hc        1 MOL      0.103844
    165 H76         3.7490    0.3580   -2.5550 hc        1 MOL      0.038391
    166 H77         3.2730    1.9470   -2.1840 hc        1 MOL      0.038391
    167 N15         6.4880    0.5630    1.4840 n         1 MOL      0.006001
    168 C54         7.2210    0.6650    2.7600 c3        1 MOL     -0.214568
    169 H78         8.0930    0.0110    2.7310 h1        1 MOL      0.089510
    170 H79         7.5460    1.6950    2.9110 h1        1 MOL      0.089510
    171 H80         6.5690    0.3640    3.5800 h1        1 MOL      0.089510
    172 H81         6.4910   -0.3400    1.0400 hn        1 MOL      0.108734
    173 Ca1        -1.5840   -0.0780   -1.8540 Ca        1 MOL      1.784725
    174 O23        -0.3480   -2.4720   -2.5210 oh        1 MOL     -0.842595
    175 H82        -0.1690   -3.3790   -2.2880 ho        1 MOL      0.409993
    176 H83         0.4880   -2.0180   -2.4200 ho        1 MOL      0.409993
    177 O24        -1.9260   -0.3510   -4.7050 oh        1 MOL     -0.842595
    178 H84        -1.6900   -0.8490   -5.4890 ho        1 MOL      0.409993
    179 H85        -2.5280    0.3220   -5.0300 ho        1 MOL      0.409993
@<TRIPOS>BOND
     1    1    2 1   
     2    1    4 1   
     3    1    5 1   
     4    1    6 1   
     5    2    3 2   
     6    2    7 1   
     7    7    8 1   
     8    7   15 1   
     9    8    9 1   
    10    8   11 1   
    11    8   16 1   
    12    9   10 2   
    13    9   19 1   
    14   11   12 1   
    15   11   17 1   
    16   11   18 1   
    17   12   13 1   
    18   12   14 1   
    19   19   20 1   
    20   19   28 1   
    21   20   21 1   
    22   20   23 1   
    23   20   29 1   
    24   21   22 2   
    25   21   41 1   
    26   23   24 1   
    27   23   30 1   
    28   23   31 1   
    29   24   25 1   
    30   24   32 1   
    31   24   33 1   
    32   25   26 1   
    33   25   34 1   
    34   25   35 1   
    35   26   27 1   
    36   26   36 1   
    37   26   37 1   
    38   27   38 1   
    39   27   39 1   
    40   27   40 1   
    41   41   42 1   
    42   41   49 1   
    43   42   43 1   
    44   42   45 1   
    45   42   50 1   
    46   43   44 2   
    47   43   53 1   
    48   45   46 1   
    49   45   51 1   
    50   45   52 1   
    51   46   47 1   
    52   46   48 1   
    53   53   54 1   
    54   53   57 1   
    55   54   55 1   
    56   54   58 1   
    57   54   59 1   
    58   55   56 2   
    59   55   60 1   
    60   60   61 1   
    61   60   68 1   
    62   61   62 1   
    63   61   64 1   
    64   61   69 1   
    65   62   63 2   
    66   62   74 1   
    67   64   65 1   
    68   64   70 1   
    69   64   71 1   
    70   65   66 1   
    71   65   67 2   
    72   66   72 1   
    73   66   73 1   
    74   74   75 1   
    75   74   78 1   
    76   75   76 1   
    77   75   79 1   
    78   75   80 1   
    79   76   77 2   
    80   76   81 1   
    81   81   82 1   
    82   81   93 1   
    83   82   83 1   
    84   82   85 1   
    85   82   94 1   
    86   83   84 2   
    87   83  102 1   
    88   85   86 1   
    89   85   95 1   
    90   85   96 1   
    91   86   87 ar  
    92   86   88 ar  
    93   87   89 ar  
    94   87   97 1   
    95   88   90 ar  
    96   88   98 1   
    97   89   91 ar  
    98   89   99 1   
    99   90   91 ar  
   100   90  100 1   
   101   91   92 1   
   102   92  101 1   
   103  102  103 1   
   104  102  110 1   
   105  103  104 1   
   106  103  106 1   
   107  103  111 1   
   108  104  105 2   
   109  104  121 1   
   110  106  107 1   
   111  106  108 1   
   112  106  112 1   
   113  107  109 1   
   114  107  113 1   
   115  107  114 1   
   116  108  115 1   
   117  108  116 1   
   118  108  117 1   
   119  109  118 1   
   120  109  119 1   
   121  109  120 1   
   122  121  122 1   
   123  121  127 1   
   124  122  123 1   
   125  122  125 1   
   126  122  128 1   
   127  123  124 2   
   128  123  132 1   
   129  125  126 1   
   130  125  129 1   
   131  125  130 1   
   132  126  131 1   
   133  132  133 1   
   134  132  137 1   
   135  133  134 1   
   136  133  136 1   
   137  133  138 1   
   138  134  135 2   
   139  134  142 1   
   140  136  139 1   
   141  136  140 1   
   142  136  141 1   
   143  142  143 1   
   144  142  147 1   
   145  143  144 1   
   146  143  146 1   
   147  143  148 1   
   148  144  145 2   
   149  144  152 1   
   150  146  149 1   
   151  146  150 1   
   152  146  151 1   
   153  152  153 1   
   154  152  161 1   
   155  153  154 1   
   156  153  156 1   
   157  153  162 1   
   158  154  155 2   
   159  154  167 1   
   160  156  157 1   
   161  156  163 1   
   162  156  164 1   
   163  157  158 1   
   164  157  165 1   
   165  157  166 1   
   166  158  159 1   
   167  158  160 1   
   168  167  168 1   
   169  167  172 1   
   170  168  169 1   
   171  168  170 1   
   172  168  171 1   
   173  174  175 1   
   174  174  176 1   
   175  177  178 1   
   176  177  179 1   
@<TRIPOS>SUBSTRUCTURE
     1 MOL         1 TEMP              0 ****  ****    0 ROOT
