@<TRIPOS>MOLECULE
MOL
  186   183     1     0     0
SMALL
resp


@<TRIPOS>ATOM
      1 C1         -0.2640   -4.6500    5.4310 c3        1 MOL     -0.291657
      2 C2          0.2530   -4.3630    4.0230 c         1 MOL      0.725344
      3 O1         -0.5730   -4.3580    3.0960 o         1 MOL     -0.568560
      4 H1         -1.3530   -4.7050    5.4140 hc        1 MOL      0.062450
      5 H2          0.1420   -5.5980    5.7820 hc        1 MOL      0.062450
      6 H3          0.0470   -3.8500    6.1040 hc        1 MOL      0.062450
      7 N1          1.5140   -4.0580    3.8490 n         1 MOL     -0.634014
      8 C3          2.1900   -3.7930    2.5650 c3        1 MOL      0.296535
      9 C4          2.1290   -4.9020    1.4710 c         1 MOL      0.516838
     10 O2          2.2890   -6.0640    1.7760 o         1 MOL     -0.586663
     11 C5          3.6160   -3.3520    2.7600 c3        1 MOL     -0.339913
     12 C6          4.3950   -2.8610    1.5640 c         1 MOL      0.726986
     13 O3          5.6350   -2.9190    1.5560 o         1 MOL     -0.688934
     14 O4          3.8140   -2.1920    0.7310 o         1 MOL     -0.688934
     15 H4          2.0810   -3.9340    4.6750 hn        1 MOL      0.304395
     16 H5          1.5750   -3.0160    2.1130 h1        1 MOL      0.008547
     17 H6          4.1840   -4.1930    3.1690 hc        1 MOL      0.059726
     18 H7          3.6230   -2.5700    3.5270 hc        1 MOL      0.059726
     19 N2          2.0310   -4.4210    0.2360 n         1 MOL     -0.154694
     20 C7          1.9570   -5.2880   -0.9640 c3        1 MOL     -0.068005
     21 C8          3.2570   -5.1880   -1.7010 c         1 MOL      0.659010
     22 O5          3.7030   -6.1220   -2.3140 o         1 MOL     -0.604672
     23 C9          0.6580   -4.9580   -1.7190 c3        1 MOL      0.199695
     24 C10        -0.5750   -5.3270   -0.9420 c3        1 MOL      0.033241
     25 C11         0.5780   -5.7170   -3.0870 c3        1 MOL     -0.507197
     26 C12        -1.9520   -4.9470   -1.4570 c3        1 MOL     -0.192091
     27 H8          1.6760   -3.4810    0.1710 hn        1 MOL      0.017901
     28 H9          1.9060   -6.3370   -0.6740 h1        1 MOL      0.036941
     29 H10         0.6420   -3.9070   -2.0160 hc        1 MOL      0.064006
     30 H11        -0.3710   -4.9250    0.0520 hc        1 MOL      0.004565
     31 H12        -0.6260   -6.4190   -0.8770 hc        1 MOL      0.004565
     32 H13         0.4010   -6.7870   -2.9660 hc        1 MOL      0.113515
     33 H14        -0.3000   -5.4100   -3.6590 hc        1 MOL      0.113515
     34 H15         1.5150   -5.4850   -3.5880 hc        1 MOL      0.113515
     35 H16        -2.1290   -3.8750   -1.5590 hc        1 MOL      0.046741
     36 H17        -2.1170   -5.3610   -2.4460 hc        1 MOL      0.046741
     37 H18        -2.6400   -5.1820   -0.6500 hc        1 MOL      0.046741
     38 N3          3.8610   -4.0100   -1.7920 n         1 MOL     -0.618758
     39 C13         4.6640   -3.5790   -2.9760 c3        1 MOL      0.271645
     40 C14         5.9510   -2.7680   -2.6440 c         1 MOL      0.375753
     41 O6          6.7950   -2.5250   -3.5410 o         1 MOL     -0.580882
     42 C15         3.8260   -2.7970   -3.9290 c3        1 MOL     -0.233508
     43 C16         3.0000   -1.7030   -3.2530 c         1 MOL      0.853693
     44 O7          3.2290   -1.3990   -2.0820 o         1 MOL     -0.756807
     45 O8          2.1120   -1.0670   -3.8220 o         1 MOL     -0.756807
     46 H19         3.3960   -3.2770   -1.2790 hn        1 MOL      0.366353
     47 H20         5.0660   -4.4240   -3.5250 h1        1 MOL      0.041188
     48 H21         3.1380   -3.5010   -4.4000 hc        1 MOL      0.031726
     49 H22         4.5200   -2.3880   -4.6630 hc        1 MOL      0.031726
     50 N4          6.2650   -2.5150   -1.3820 n         1 MOL     -0.022106
     51 C17         7.6520   -2.0600   -0.9860 c3        1 MOL     -0.332795
     52 C18         7.9130   -0.5740   -1.1620 c         1 MOL      0.692973
     53 O9          9.0220   -0.1250   -0.9910 o         1 MOL     -0.630376
     54 H23         5.5340   -2.7870   -0.7300 hn        1 MOL      0.074681
     55 H24         8.3160   -2.6440   -1.6250 h1        1 MOL      0.135319
     56 H25         7.7820   -2.3420    0.0660 h1        1 MOL      0.135319
     57 N5          6.8470    0.2420   -1.3990 n         1 MOL     -0.301520
     58 C19         6.8760    1.6990   -1.7190 c3        1 MOL      0.018762
     59 C20         6.8360    2.6910   -0.4920 c         1 MOL      0.381810
     60 O10         6.8680    3.9120   -0.7070 o         1 MOL     -0.529150
     61 C21         5.7330    1.9970   -2.7090 c3        1 MOL     -0.341842
     62 C22         4.3320    1.9210   -2.0670 c         1 MOL      0.988229
     63 O11         4.2070    1.4500   -0.9010 o         1 MOL     -0.768040
     64 O12         3.3790    2.3370   -2.7460 o         1 MOL     -0.768040
     65 H26         5.9820   -0.2420   -1.5650 hn        1 MOL      0.084034
     66 H27         7.8400    1.9610   -2.1650 h1        1 MOL      0.093990
     67 H28         5.7020    1.2340   -3.4850 hc        1 MOL      0.097255
     68 H29         5.8690    2.9690   -3.1830 hc        1 MOL      0.097255
     69 N6          6.7490    2.1660    0.7060 n         1 MOL     -0.173016
     70 C23         6.6120    2.9650    1.9530 c3        1 MOL     -0.344006
     71 C24         5.3590    3.8000    2.0840 c         1 MOL      0.545872
     72 O13         5.3480    4.6120    3.0080 o         1 MOL     -0.590763
     73 H30         6.8640    1.1650    0.7910 hn        1 MOL      0.228799
     74 H31         7.4180    3.7090    1.9410 h1        1 MOL      0.147306
     75 H32         6.5480    2.2920    2.8030 h1        1 MOL      0.147306
     76 N7          4.3180    3.5660    1.2930 n         1 MOL     -0.048941
     77 C25         3.0670    4.2800    1.3450 c3        1 MOL     -0.393370
     78 C26         1.7770    3.3900    1.3960 c         1 MOL      0.648519
     79 O14         1.6750    2.3570    0.6790 o         1 MOL     -0.583151
     80 C27         2.9240    5.2340    0.2290 c3        1 MOL      0.156169
     81 C28         3.8240    6.4960    0.4290 c3        1 MOL     -0.277726
     82 C29         3.5830    7.5830   -0.6050 c         1 MOL      0.635520
     83 N8          4.4210    7.7760   -1.5610 n         1 MOL     -0.782676
     84 O15         2.5300    8.2610   -0.6300 o         1 MOL     -0.593130
     85 H33         4.3310    2.7400    0.7050 hn        1 MOL      0.103209
     86 H34         3.0840    4.9780    2.1770 h1        1 MOL      0.109573
     87 H35         1.9200    5.6300    0.1310 hc        1 MOL      0.032513
     88 H36         3.2410    4.7210   -0.6760 hc        1 MOL      0.032513
     89 H37         4.8590    6.1720    0.3190 hc        1 MOL      0.090043
     90 H38         3.6920    7.0120    1.3740 hc        1 MOL      0.090043
     91 H39         5.2880    7.2580   -1.5230 hn        1 MOL      0.368221
     92 H40         4.0370    8.1610   -2.4060 hn        1 MOL      0.368221
     93 N9          0.7920    3.8340    2.2130 n         1 MOL     -0.402206
     94 C30        -0.4190    3.0470    2.4470 c3        1 MOL     -0.406970
     95 C31        -1.4010    3.2810    1.3120 c         1 MOL      0.791461
     96 O16        -1.9160    4.3440    1.1700 o         1 MOL     -0.581105
     97 C32        -1.1130    3.3640    3.7950 c3        1 MOL      0.440309
     98 C33        -2.1520    2.2920    4.1250 c3        1 MOL     -0.384994
     99 C34        -0.1170    3.4610    4.9300 c3        1 MOL     -0.384994
    100 H41         1.0190    4.5960    2.8370 hn        1 MOL      0.302282
    101 H42         0.0380    2.0620    2.4730 h1        1 MOL      0.291342
    102 H43        -1.6260    4.3300    3.7670 hc        1 MOL     -0.045470
    103 H44        -1.6670    1.3160    4.0490 hc        1 MOL      0.077262
    104 H45        -2.6090    2.4130    5.1150 hc        1 MOL      0.077262
    105 H46        -2.9450    2.2980    3.3780 hc        1 MOL      0.077262
    106 H47         0.3690    2.4880    5.0150 hc        1 MOL      0.077262
    107 H48         0.6240    4.2290    4.7070 hc        1 MOL      0.077262
    108 H49        -0.6550    3.7430    5.8380 hc        1 MOL      0.077262
    109 N10        -1.6320    2.3020    0.3690 n         1 MOL     -0.489939
    110 C35        -2.8470    2.2890   -0.4330 c3        1 MOL      0.090031
    111 C36        -4.0700    2.0840    0.4690 c         1 MOL      0.107331
    112 O17        -3.9470    1.3370    1.4380 o         1 MOL     -0.226918
    113 C37        -2.7000    1.1640   -1.4550 c3        1 MOL     -0.247411
    114 C38        -3.6480    1.2550   -2.5800 c         1 MOL      0.796014
    115 N11        -3.6250    2.3070   -3.3320 n         1 MOL     -0.813974
    116 O18        -4.3810    0.3100   -2.9380 o         1 MOL     -0.627668
    117 H50        -1.1860    1.4010    0.5000 hn        1 MOL      0.257921
    118 H51        -3.0690    3.2140   -0.9700 h1        1 MOL      0.061365
    119 H52        -2.8240    0.2770   -0.8360 hc        1 MOL      0.097871
    120 H53        -1.6970    1.1670   -1.8750 hc        1 MOL      0.097871
    121 H54        -3.0010    3.0950   -3.1910 hn        1 MOL      0.361531
    122 H55        -4.2820    2.2470   -4.0960 hn        1 MOL      0.361531
    123 N12        -5.3220    2.4410    0.0690 n         1 MOL     -0.071561
    124 C39        -6.6170    2.0830    0.6300 c3        1 MOL      0.070392
    125 C40        -6.8040    0.5860    0.8210 c         1 MOL      0.376633
    126 O19        -7.3650    0.2150    1.8600 o         1 MOL     -0.588686
    127 C41        -7.7040    2.7900   -0.1870 c3        1 MOL     -0.272002
    128 C42        -7.6980    2.7350   -1.6780 ca        1 MOL      0.073747
    129 C43        -7.2400    3.8690   -2.3870 ca        1 MOL     -0.123654
    130 C44        -7.9860    1.5550   -2.4120 ca        1 MOL     -0.123654
    131 C45        -6.8690    3.7940   -3.7320 ca        1 MOL     -0.213129
    132 C46        -7.7780    1.4960   -3.8050 ca        1 MOL     -0.213129
    133 C47        -7.1000    2.5740   -4.3890 ca        1 MOL      0.262036
    134 O20        -6.6250    2.3780   -5.6940 oh        1 MOL     -0.456253
    135 H56        -5.2260    3.0090   -0.7650 hn        1 MOL      0.094824
    136 H57        -6.6360    2.5760    1.5950 h1        1 MOL      0.060874
    137 H58        -7.6840    3.8520    0.0550 hc        1 MOL      0.092870
    138 H59        -8.7290    2.4780    0.0370 hc        1 MOL      0.092870
    139 H60        -7.1610    4.8370   -1.9000 ha        1 MOL      0.078203
    140 H61        -8.2510    0.6810   -1.8360 ha        1 MOL      0.078203
    141 H62        -6.3660    4.6230   -4.2180 ha        1 MOL      0.111415
    142 H63        -7.9810    0.5520   -4.3030 ha        1 MOL      0.111415
    143 H64        -5.9600    3.0290   -5.9130 ho        1 MOL      0.317955
    144 N13        -6.2520   -0.2440   -0.0550 n         1 MOL      0.194215
    145 C48        -6.3240   -1.7630   -0.0360 c3        1 MOL     -0.325498
    146 C49        -5.4120   -2.3880    1.0790 c         1 MOL      0.437287
    147 O21        -5.6210   -3.5530    1.4880 o         1 MOL     -0.519715
    148 C50        -5.9400   -2.3470   -1.3890 c3        1 MOL      0.140990
    149 C51        -6.8520   -1.9060   -2.5440 c3        1 MOL     -0.025997
    150 C52        -8.2620   -2.3110   -2.2870 c         1 MOL      0.601870
    151 O22        -9.1830   -1.5480   -2.7370 o         1 MOL     -0.678626
    152 O23        -8.5660   -3.2940   -1.6250 o         1 MOL     -0.678626
    153 H65        -5.9280    0.1570   -0.9280 hn        1 MOL      0.111415
    154 H66        -7.3840   -1.9960    0.1130 h1        1 MOL      0.161183
    155 H67        -5.9990   -3.4340   -1.3460 hc        1 MOL     -0.030811
    156 H68        -4.9000   -2.0480   -1.5230 hc        1 MOL     -0.030811
    157 H69        -6.4830   -2.5490   -3.3490 hc        1 MOL      0.008416
    158 H70        -6.7660   -0.8570   -2.8030 hc        1 MOL      0.008416
    159 N14        -4.5740   -1.5570    1.6960 n         1 MOL     -0.118629
    160 C53        -3.6390   -1.8560    2.8110 c3        1 MOL      0.010206
    161 C54        -4.2000   -1.2000    4.0800 c         1 MOL      0.423517
    162 O24        -4.3070   -1.8450    5.0910 o         1 MOL     -0.561486
    163 C55        -2.2110   -1.3790    2.4210 c3        1 MOL      0.280592
    164 C56        -1.5400   -1.9420    1.1110 c3        1 MOL     -0.293207
    165 C57        -0.2040   -1.3410    0.8350 c         1 MOL      0.867202
    166 O25         0.5440   -1.9210    0.0720 o         1 MOL     -0.763472
    167 O26         0.1740   -0.3110    1.3750 o         1 MOL     -0.763472
    168 H71        -4.3970   -0.6750    1.2480 hn        1 MOL      0.010348
    169 H72        -3.5360   -2.9380    2.9110 h1        1 MOL      0.065448
    170 H73        -1.5250   -1.5740    3.2550 hc        1 MOL     -0.092386
    171 H74        -2.2890   -0.2930    2.3750 hc        1 MOL     -0.092386
    172 H75        -2.2200   -1.6540    0.3110 hc        1 MOL      0.079888
    173 H76        -1.6100   -3.0270    1.1630 hc        1 MOL      0.079888
    174 N15        -4.7980   -0.0160    4.1100 n         1 MOL     -0.032744
    175 C58        -5.3720    0.6560    5.3040 c3        1 MOL     -0.341549
    176 H77        -6.4590    0.5730    5.2790 h1        1 MOL      0.114670
    177 H78        -4.9930    0.1790    6.2080 h1        1 MOL      0.114670
    178 H79        -5.0880    1.7080    5.3010 h1        1 MOL      0.114670
    179 H80        -4.7490    0.4880    3.2330 hn        1 MOL      0.083496
    180 Ca1         2.5110   -0.1340    0.0460 Ca        1 MOL      1.736154
    181 O27         3.3770    0.6130    2.4740 oh        1 MOL     -0.949441
    182 H81         4.3190    0.4330    2.5080 ho        1 MOL      0.456669
    183 H82         3.1650    0.9240    3.3580 ho        1 MOL      0.456669
    184 O28         1.3270    0.8310   -2.2350 oh        1 MOL     -0.949441
    185 H83         1.8360    1.6140   -2.4010 ho        1 MOL      0.456669
    186 H84         1.3760    0.3320   -3.0470 ho        1 MOL      0.456669
@<TRIPOS>BOND
     1    1    2 1   
     2    1    4 1   
     3    1    5 1   
     4    1    6 1   
     5    2    3 2   
     6    2    7 1   
     7    7    8 1   
     8    7   15 1   
     9    8    9 1   
    10    8   11 1   
    11    8   16 1   
    12    9   10 2   
    13    9   19 1   
    14   11   12 1   
    15   11   17 1   
    16   11   18 1   
    17   12   13 1   
    18   12   14 1   
    19   19   20 1   
    20   19   27 1   
    21   20   21 1   
    22   20   23 1   
    23   20   28 1   
    24   21   22 2   
    25   21   38 1   
    26   23   24 1   
    27   23   25 1   
    28   23   29 1   
    29   24   26 1   
    30   24   30 1   
    31   24   31 1   
    32   25   32 1   
    33   25   33 1   
    34   25   34 1   
    35   26   35 1   
    36   26   36 1   
    37   26   37 1   
    38   38   39 1   
    39   38   46 1   
    40   39   40 1   
    41   39   42 1   
    42   39   47 1   
    43   40   41 2   
    44   40   50 1   
    45   42   43 1   
    46   42   48 1   
    47   42   49 1   
    48   43   44 1   
    49   43   45 1   
    50   50   51 1   
    51   50   54 1   
    52   51   52 1   
    53   51   55 1   
    54   51   56 1   
    55   52   53 2   
    56   52   57 1   
    57   57   58 1   
    58   57   65 1   
    59   58   59 1   
    60   58   61 1   
    61   58   66 1   
    62   59   60 2   
    63   59   69 1   
    64   61   62 1   
    65   61   67 1   
    66   61   68 1   
    67   62   63 1   
    68   62   64 1   
    69   69   70 1   
    70   69   73 1   
    71   70   71 1   
    72   70   74 1   
    73   70   75 1   
    74   71   72 2   
    75   71   76 1   
    76   76   77 1   
    77   76   85 1   
    78   77   78 1   
    79   77   80 1   
    80   77   86 1   
    81   78   79 2   
    82   78   93 1   
    83   80   81 1   
    84   80   87 1   
    85   80   88 1   
    86   81   82 1   
    87   81   89 1   
    88   81   90 1   
    89   82   83 1   
    90   82   84 2   
    91   83   91 1   
    92   83   92 1   
    93   93   94 1   
    94   93  100 1   
    95   94   95 1   
    96   94   97 1   
    97   94  101 1   
    98   95   96 2   
    99   95  109 1   
   100   97   98 1   
   101   97   99 1   
   102   97  102 1   
   103   98  103 1   
   104   98  104 1   
   105   98  105 1   
   106   99  106 1   
   107   99  107 1   
   108   99  108 1   
   109  109  110 1   
   110  109  117 1   
   111  110  111 1   
   112  110  113 1   
   113  110  118 1   
   114  111  112 2   
   115  111  123 1   
   116  113  114 1   
   117  113  119 1   
   118  113  120 1   
   119  114  115 1   
   120  114  116 2   
   121  115  121 1   
   122  115  122 1   
   123  123  124 1   
   124  123  135 1   
   125  124  125 1   
   126  124  127 1   
   127  124  136 1   
   128  125  126 2   
   129  125  144 1   
   130  127  128 1   
   131  127  137 1   
   132  127  138 1   
   133  128  129 ar  
   134  128  130 ar  
   135  129  131 ar  
   136  129  139 1   
   137  130  132 ar  
   138  130  140 1   
   139  131  133 ar  
   140  131  141 1   
   141  132  133 ar  
   142  132  142 1   
   143  133  134 1   
   144  134  143 1   
   145  144  145 1   
   146  144  153 1   
   147  145  146 1   
   148  145  148 1   
   149  145  154 1   
   150  146  147 2   
   151  146  159 1   
   152  148  149 1   
   153  148  155 1   
   154  148  156 1   
   155  149  150 1   
   156  149  157 1   
   157  149  158 1   
   158  150  151 1   
   159  150  152 1   
   160  159  160 1   
   161  159  168 1   
   162  160  161 1   
   163  160  163 1   
   164  160  169 1   
   165  161  162 2   
   166  161  174 1   
   167  163  164 1   
   168  163  170 1   
   169  163  171 1   
   170  164  165 1   
   171  164  172 1   
   172  164  173 1   
   173  165  166 1   
   174  165  167 1   
   175  174  175 1   
   176  174  179 1   
   177  175  176 1   
   178  175  177 1   
   179  175  178 1   
   180  181  182 1   
   181  181  183 1   
   182  184  185 1   
   183  184  186 1   
@<TRIPOS>SUBSTRUCTURE
     1 MOL         1 TEMP              0 ****  ****    0 ROOT
