@<TRIPOS>MOLECULE
MOL
  175   173     1     0     0
SMALL
resp


@<TRIPOS>ATOM
      1 C1          0.0060   -3.1340    5.8030 c3        1 MOL     -0.347412
      2 C2          0.5170   -3.0540    4.3440 c         1 MOL      0.759507
      3 O1         -0.0780   -3.5690    3.3990 o         1 MOL     -0.619753
      4 H1         -0.8210   -3.8420    5.8590 hc        1 MOL      0.082616
      5 H2          0.8130   -3.4660    6.4540 hc        1 MOL      0.082616
      6 H3         -0.3370   -2.1500    6.1220 hc        1 MOL      0.082616
      7 N1          1.6470   -2.4820    4.1000 n         1 MOL     -0.591404
      8 C3          2.2190   -2.2660    2.7390 c3        1 MOL      0.037234
      9 C4          2.8300   -3.5840    2.2280 c         1 MOL      0.580378
     10 O2          3.8250   -4.1700    2.8100 o         1 MOL     -0.608296
     11 C5          3.1130   -1.0620    2.9310 c3        1 MOL      0.009633
     12 C6          3.7430   -0.5910    1.6080 c         1 MOL      0.624503
     13 O3          4.6500    0.2390    1.6910 o         1 MOL     -0.712428
     14 O4          3.3190   -1.0300    0.5110 o         1 MOL     -0.712428
     15 H4          2.2010   -2.0430    4.8250 hn        1 MOL      0.293596
     16 H5          1.3720   -2.0260    2.0900 h1        1 MOL      0.099806
     17 H6          3.8270   -1.3700    3.6910 hc        1 MOL      0.007228
     18 H7          2.5960   -0.1910    3.3400 hc        1 MOL      0.007228
     19 N2          2.4030   -4.1160    1.0640 n         1 MOL     -0.331794
     20 C7          2.7290   -5.3960    0.4440 c3        1 MOL      0.136497
     21 C8          3.9020   -5.2900   -0.6220 c         1 MOL      0.412767
     22 O5          4.7640   -6.1380   -0.7190 o         1 MOL     -0.562896
     23 C9          1.4950   -5.9580   -0.1360 c3        1 MOL     -0.352771
     24 H8          1.6430   -3.6070    0.6340 hn        1 MOL      0.270193
     25 H9          3.1210   -6.0200    1.2450 h1        1 MOL      0.059757
     26 H10         1.7450   -6.8630   -0.6890 hc        1 MOL      0.096474
     27 H11         0.7500   -6.2560    0.5980 hc        1 MOL      0.096474
     28 H12         1.0260   -5.2350   -0.7930 hc        1 MOL      0.096474
     29 N3          3.9690   -4.2020   -1.3370 n         1 MOL     -0.239841
     30 C10         5.1410   -3.9420   -2.2280 c3        1 MOL     -0.043046
     31 C11         6.1850   -3.0820   -1.4260 c         1 MOL      0.465021
     32 O6          7.3580   -3.0960   -1.8460 o         1 MOL     -0.576163
     33 C12         4.8410   -3.2130   -3.6010 c3        1 MOL     -0.069864
     34 C13         3.8300   -2.0980   -3.5430 c         1 MOL      0.628193
     35 O7          3.4070   -1.6350   -2.4330 o         1 MOL     -0.691695
     36 O8          3.4010   -1.7420   -4.6790 o         1 MOL     -0.691695
     37 H13         3.3060   -3.4520   -1.2350 hn        1 MOL      0.220780
     38 H14         5.5750   -4.8900   -2.5420 h1        1 MOL      0.105745
     39 H15         4.3900   -3.9560   -4.2610 hc        1 MOL      0.035202
     40 H16         5.7800   -2.9570   -4.0990 hc        1 MOL      0.035202
     41 N4          5.7490   -2.5010   -0.2950 n         1 MOL     -0.049670
     42 C14         6.6720   -1.9400    0.7060 c3        1 MOL     -0.371728
     43 C15         7.3370   -0.5960    0.4120 c         1 MOL      0.641102
     44 O9          8.2160   -0.1160    1.1320 o         1 MOL     -0.595067
     45 H17         4.7590   -2.3470   -0.1910 hn        1 MOL      0.094704
     46 H18         7.5080   -2.6350    0.8020 h1        1 MOL      0.157365
     47 H19         6.1660   -1.9620    1.6750 h1        1 MOL      0.157365
     48 N5          6.9220    0.0690   -0.6720 n         1 MOL     -0.394216
     49 C16         7.3290    1.3170   -1.2050 c3        1 MOL      0.131461
     50 C17         7.1370    2.5170   -0.2770 c         1 MOL      0.318865
     51 O10         7.6480    3.6300   -0.6090 o         1 MOL     -0.559338
     52 C18         6.6080    1.5650   -2.5100 c3        1 MOL     -0.426727
     53 C19         5.1670    2.1130   -2.3080 c         1 MOL      0.741202
     54 N6          5.0100    3.3780   -2.5980 n         1 MOL     -0.786423
     55 O11         4.2350    1.5290   -1.7730 o         1 MOL     -0.658235
     56 H20         6.0080   -0.1850   -1.0180 hn        1 MOL      0.214683
     57 H21         8.3990    1.3070   -1.4200 h1        1 MOL      0.105175
     58 H22         6.6970    0.5920   -2.9870 hc        1 MOL      0.137538
     59 H23         7.2530    2.3180   -2.9740 hc        1 MOL      0.137538
     60 H24         5.7900    3.9220   -2.9110 hn        1 MOL      0.365405
     61 H25         4.1120    3.8060   -2.4410 hn        1 MOL      0.365405
     62 N7          6.4450    2.3840    0.8640 n         1 MOL     -0.039483
     63 C20         6.1730    3.4430    1.9280 c3        1 MOL     -0.308099
     64 C21         4.8930    4.2450    1.7620 c         1 MOL      0.600475
     65 O12         4.8450    5.4110    2.2250 o         1 MOL     -0.581236
     66 H26         6.0190    1.4860    1.0620 hn        1 MOL      0.258026
     67 H27         7.0530    4.0980    1.9660 h1        1 MOL      0.138745
     68 H28         6.0440    2.9530    2.8900 h1        1 MOL      0.138745
     69 N8          3.9110    3.8990    0.8950 n         1 MOL     -0.274452
     70 C22         2.5690    4.5270    0.7310 c3        1 MOL     -0.045292
     71 C23         1.4320    3.5080    0.7470 c         1 MOL      0.568493
     72 O13         1.5940    2.3760    0.3120 o         1 MOL     -0.536889
     73 C24         2.3800    5.4850   -0.4220 c3        1 MOL      0.415375
     74 C25         3.3860    6.5580   -0.4450 c3        1 MOL     -0.416060
     75 O14         2.3930    4.8850   -1.6810 oh        1 MOL     -0.705516
     76 H29         4.1280    3.1030    0.3090 hn        1 MOL      0.196121
     77 H30         2.3700    5.1080    1.6300 h1        1 MOL      0.060895
     78 H31         1.4230    5.9860   -0.2490 h1        1 MOL     -0.010722
     79 H32         2.5660    5.5430   -2.3550 ho        1 MOL      0.435321
     80 H33         3.2260    7.1400   -1.3620 hc        1 MOL      0.107796
     81 H34         3.3720    7.1700    0.4570 hc        1 MOL      0.107796
     82 H35         4.3920    6.1670   -0.5630 hc        1 MOL      0.107796
     83 N9          0.3330    3.8450    1.3400 n         1 MOL     -0.479545
     84 C26        -0.8170    2.9490    1.5340 c3        1 MOL     -0.023008
     85 C27        -1.8300    3.1750    0.3450 c         1 MOL      0.576738
     86 O15        -2.5010    4.1340    0.2300 o         1 MOL     -0.565417
     87 C28        -1.4040    3.2390    2.9570 c3        1 MOL      0.019077
     88 C29        -0.5550    2.5960    4.0700 c3        1 MOL      0.019298
     89 C30        -2.7890    2.4970    2.9730 c3        1 MOL     -0.172689
     90 C31        -1.1780    2.8430    5.4830 c3        1 MOL     -0.077624
     91 H36         0.1540    4.8160    1.5310 hn        1 MOL      0.279172
     92 H37        -0.4680    1.9240    1.5420 h1        1 MOL      0.131721
     93 H38        -1.5850    4.3080    3.0780 hc        1 MOL      0.033514
     94 H39         0.4250    3.0590    4.1590 hc        1 MOL      0.015665
     95 H40        -0.5280    1.5310    3.8560 hc        1 MOL      0.015665
     96 H41        -3.5520    2.7600    2.2480 hc        1 MOL      0.030970
     97 H42        -2.6130    1.4440    2.7460 hc        1 MOL      0.030970
     98 H43        -3.2680    2.5090    3.9470 hc        1 MOL      0.030970
     99 H44        -1.2900    3.9030    5.7040 hc        1 MOL      0.014647
    100 H45        -2.0910    2.2810    5.6380 hc        1 MOL      0.014647
    101 H46        -0.5110    2.4550    6.2670 hc        1 MOL      0.014647
    102 N10        -1.8950    2.1370   -0.4710 n         1 MOL     -0.287729
    103 C32        -2.9400    1.8340   -1.5090 c3        1 MOL     -0.015071
    104 C33        -4.3190    1.4250   -1.0080 c         1 MOL      0.379406
    105 O16        -4.3360    0.8190    0.0040 o         1 MOL     -0.250330
    106 C34        -2.4250    0.7890   -2.4730 c3        1 MOL     -0.196856
    107 C35        -3.4260    0.6550   -3.6370 c         1 MOL      0.768924
    108 O17        -3.4220   -0.4410   -4.2310 o         1 MOL     -0.707775
    109 O18        -4.0320    1.5940   -4.1330 o         1 MOL     -0.707775
    110 H47        -1.3420    1.3060   -0.3100 hn        1 MOL      0.135194
    111 H48        -3.1080    2.6450   -2.2210 h1        1 MOL      0.046115
    112 H49        -2.2760   -0.1600   -1.9720 hc        1 MOL      0.066881
    113 H50        -1.5220    1.1600   -2.9540 hc        1 MOL      0.066881
    114 N11        -5.4490    1.6490   -1.6150 n         1 MOL     -0.472293
    115 C36        -6.7780    1.2460   -0.9960 c3        1 MOL      0.251164
    116 C37        -6.9470   -0.2360   -0.5090 c         1 MOL      0.474125
    117 O19        -7.4290   -0.5480    0.6100 o         1 MOL     -0.554846
    118 C38        -7.9390    1.6920   -1.9710 c3        1 MOL     -0.265160
    119 C39        -9.3060    1.3940   -1.4210 ca        1 MOL      0.117879
    120 C40        -9.7340    2.1020   -0.2930 ca        1 MOL     -0.231777
    121 C41       -10.1170    0.3410   -1.9440 ca        1 MOL     -0.231777
    122 C42       -10.8720    1.7130    0.3570 ca        1 MOL     -0.046005
    123 C43       -11.2490   -0.0190   -1.3350 ca        1 MOL     -0.046005
    124 C44       -11.6410    0.7090   -0.1900 ca        1 MOL     -0.131159
    125 H51        -5.3500    1.9970   -2.5560 hn        1 MOL      0.259281
    126 H52        -6.8290    1.8250   -0.0710 h1        1 MOL      0.032522
    127 H53        -7.9000    1.3070   -2.9790 hc        1 MOL      0.095020
    128 H54        -7.8670    2.7790   -1.9020 hc        1 MOL      0.095020
    129 H55        -9.1940    2.9370    0.1380 ha        1 MOL      0.139021
    130 H56        -9.8650   -0.2160   -2.8350 ha        1 MOL      0.139021
    131 H57       -11.1070    2.2230    1.2830 ha        1 MOL      0.094518
    132 H58       -11.8160   -0.7990   -1.8200 ha        1 MOL      0.094518
    133 H59       -12.6420    0.6510    0.2160 ha        1 MOL      0.071310
    134 N12        -6.4980   -1.2080   -1.2430 n         1 MOL     -0.058751
    135 C45        -6.5300   -2.5610   -0.7470 c3        1 MOL     -0.019912
    136 C46        -5.6100   -2.7880    0.4610 c         1 MOL      0.371391
    137 O20        -6.0480   -3.4670    1.4190 o         1 MOL     -0.541648
    138 C47        -6.0430   -3.4660   -1.8920 c3        1 MOL     -0.138347
    139 C48        -6.4900   -2.6870   -3.1330 c3        1 MOL      0.070888
    140 C49        -6.1680   -1.2680   -2.6660 c3        1 MOL     -0.170913
    141 H60        -7.5700   -2.8480   -0.6030 h1        1 MOL      0.076309
    142 H61        -4.9540   -3.5070   -1.9790 hc        1 MOL      0.052492
    143 H62        -6.4650   -4.4640   -1.9280 hc        1 MOL      0.052492
    144 H63        -6.0730   -2.9550   -4.1030 hc        1 MOL      0.011074
    145 H64        -7.5460   -2.8080   -3.4070 hc        1 MOL      0.011074
    146 H65        -5.0850   -1.1590   -2.8260 h1        1 MOL      0.076289
    147 H66        -6.8140   -0.6050   -3.2240 h1        1 MOL      0.076289
    148 N13        -4.5530   -2.0850    0.6240 n         1 MOL     -0.277865
    149 C50        -3.7300   -1.9380    1.8770 c3        1 MOL     -0.011027
    150 C51        -4.3700   -1.1950    3.0580 c         1 MOL      0.395416
    151 O21        -4.2560   -1.5990    4.2170 o         1 MOL     -0.556835
    152 C52        -2.3210   -1.3420    1.4370 c3        1 MOL     -0.015372
    153 C53        -1.6400   -2.1190    0.2510 c3        1 MOL     -0.204057
    154 C54        -0.2660   -1.5770   -0.1230 c         1 MOL      0.740630
    155 O22        -0.0290   -0.3510    0.0740 o         1 MOL     -0.768253
    156 O23         0.6350   -2.2960   -0.5650 o         1 MOL     -0.768253
    157 H67        -4.3710   -1.3650   -0.0670 hn        1 MOL      0.264850
    158 H68        -3.4970   -2.8980    2.3320 h1        1 MOL      0.099160
    159 H69        -1.6430   -1.4670    2.2870 hc        1 MOL      0.042423
    160 H70        -2.4600   -0.2910    1.1790 hc        1 MOL      0.042423
    161 H71        -2.2310   -2.1250   -0.6640 hc        1 MOL      0.058341
    162 H72        -1.5550   -3.1770    0.4860 hc        1 MOL      0.058341
    163 N14        -5.1460   -0.2040    2.6970 n         1 MOL      0.123129
    164 C55        -6.0410    0.4720    3.6400 c3        1 MOL     -0.260433
    165 H73        -6.6680   -0.2670    4.1390 h1        1 MOL      0.082410
    166 H74        -5.4490    1.0070    4.3820 h1        1 MOL      0.082410
    167 H75        -6.6710    1.1780    3.0990 h1        1 MOL      0.082410
    168 H76        -5.0670    0.2030    1.7770 hn        1 MOL     -0.004343
    169 Ca1         1.9570    0.0860   -1.3960 Ca        1 MOL      1.811919
    170 O24         0.8710   -0.5230   -3.6250 oh        1 MOL     -0.913347
    171 H77         1.5580   -1.1320   -3.8920 ho        1 MOL      0.432598
    172 H78         0.1840   -0.6410   -4.2930 ho        1 MOL      0.432598
    173 O25         1.5710    2.4200   -2.4460 oh        1 MOL     -0.913347
    174 H79         1.9040    2.7090   -3.3030 ho        1 MOL      0.432598
    175 H80         1.5120    3.2320   -1.9310 ho        1 MOL      0.432598
@<TRIPOS>BOND
     1    1    2 1   
     2    1    4 1   
     3    1    5 1   
     4    1    6 1   
     5    2    3 2   
     6    2    7 1   
     7    7    8 1   
     8    7   15 1   
     9    8    9 1   
    10    8   11 1   
    11    8   16 1   
    12    9   10 2   
    13    9   19 1   
    14   11   12 1   
    15   11   17 1   
    16   11   18 1   
    17   12   13 1   
    18   12   14 1   
    19   19   20 1   
    20   19   24 1   
    21   20   21 1   
    22   20   23 1   
    23   20   25 1   
    24   21   22 2   
    25   21   29 1   
    26   23   26 1   
    27   23   27 1   
    28   23   28 1   
    29   29   30 1   
    30   29   37 1   
    31   30   31 1   
    32   30   33 1   
    33   30   38 1   
    34   31   32 2   
    35   31   41 1   
    36   33   34 1   
    37   33   39 1   
    38   33   40 1   
    39   34   35 1   
    40   34   36 1   
    41   41   42 1   
    42   41   45 1   
    43   42   43 1   
    44   42   46 1   
    45   42   47 1   
    46   43   44 2   
    47   43   48 1   
    48   48   49 1   
    49   48   56 1   
    50   49   50 1   
    51   49   52 1   
    52   49   57 1   
    53   50   51 2   
    54   50   62 1   
    55   52   53 1   
    56   52   58 1   
    57   52   59 1   
    58   53   54 1   
    59   53   55 2   
    60   54   60 1   
    61   54   61 1   
    62   62   63 1   
    63   62   66 1   
    64   63   64 1   
    65   63   67 1   
    66   63   68 1   
    67   64   65 2   
    68   64   69 1   
    69   69   70 1   
    70   69   76 1   
    71   70   71 1   
    72   70   73 1   
    73   70   77 1   
    74   71   72 2   
    75   71   83 1   
    76   73   74 1   
    77   73   75 1   
    78   73   78 1   
    79   74   80 1   
    80   74   81 1   
    81   74   82 1   
    82   75   79 1   
    83   83   84 1   
    84   83   91 1   
    85   84   85 1   
    86   84   87 1   
    87   84   92 1   
    88   85   86 2   
    89   85  102 1   
    90   87   88 1   
    91   87   89 1   
    92   87   93 1   
    93   88   90 1   
    94   88   94 1   
    95   88   95 1   
    96   89   96 1   
    97   89   97 1   
    98   89   98 1   
    99   90   99 1   
   100   90  100 1   
   101   90  101 1   
   102  102  103 1   
   103  102  110 1   
   104  103  104 1   
   105  103  106 1   
   106  103  111 1   
   107  104  105 2   
   108  104  114 1   
   109  106  107 1   
   110  106  112 1   
   111  106  113 1   
   112  107  108 1   
   113  107  109 1   
   114  114  115 1   
   115  114  125 1   
   116  115  116 1   
   117  115  118 1   
   118  115  126 1   
   119  116  117 2   
   120  116  134 1   
   121  118  119 1   
   122  118  127 1   
   123  118  128 1   
   124  119  120 ar  
   125  119  121 ar  
   126  120  122 ar  
   127  120  129 1   
   128  121  123 ar  
   129  121  130 1   
   130  122  124 ar  
   131  122  131 1   
   132  123  124 ar  
   133  123  132 1   
   134  124  133 1   
   135  134  135 1   
   136  134  140 1   
   137  135  136 1   
   138  135  138 1   
   139  135  141 1   
   140  136  137 2   
   141  136  148 1   
   142  138  139 1   
   143  138  142 1   
   144  138  143 1   
   145  139  140 1   
   146  139  144 1   
   147  139  145 1   
   148  140  146 1   
   149  140  147 1   
   150  148  149 1   
   151  148  157 1   
   152  149  150 1   
   153  149  152 1   
   154  149  158 1   
   155  150  151 2   
   156  150  163 1   
   157  152  153 1   
   158  152  159 1   
   159  152  160 1   
   160  153  154 1   
   161  153  161 1   
   162  153  162 1   
   163  154  155 1   
   164  154  156 1   
   165  163  164 1   
   166  163  168 1   
   167  164  165 1   
   168  164  166 1   
   169  164  167 1   
   170  170  171 1   
   171  170  172 1   
   172  173  174 1   
   173  173  175 1   
@<TRIPOS>SUBSTRUCTURE
     1 MOL         1 TEMP              0 ****  ****    0 ROOT
