@<TRIPOS>MOLECULE
MOL
  189   185     1     0     0
SMALL
resp


@<TRIPOS>ATOM
      1 C1          1.3760    3.4360   -5.6510 c3        1 MOL     -0.602046
      2 C2          1.3370    2.8950   -4.2120 c         1 MOL      0.831393
      3 O1          0.5100    3.2330   -3.3800 o         1 MOL     -0.675263
      4 H1          1.1170    4.4950   -5.6470 hc        1 MOL      0.148546
      5 H2          2.3780    3.3090   -6.0610 hc        1 MOL      0.148546
      6 H3          0.6600    2.8890   -6.2640 hc        1 MOL      0.148546
      7 N1          2.3630    2.1880   -3.8140 n         1 MOL     -0.499085
      8 C3          2.5400    1.7750   -2.4430 c3        1 MOL      0.038557
      9 C4          2.9200    2.9640   -1.6480 c         1 MOL      0.397000
     10 O2          3.9870    3.5100   -1.9080 o         1 MOL     -0.546577
     11 C5          3.7510    0.7850   -2.5220 c3        1 MOL     -0.370161
     12 C6          4.2790    0.4840   -1.1040 c         1 MOL      0.942801
     13 O3          5.4880    0.3120   -1.0010 o         1 MOL     -0.677252
     14 O4          3.4880    0.5400   -0.1740 o         1 MOL     -0.677252
     15 H4          2.9180    1.7680   -4.5540 hn        1 MOL      0.303790
     16 H5          1.6160    1.3130   -2.0800 h1        1 MOL      0.066900
     17 H6          4.5390    1.3360   -3.0240 hc        1 MOL      0.075981
     18 H7          3.5710   -0.1240   -3.0990 hc        1 MOL      0.075981
     19 N2          2.1450    3.3160   -0.6660 n         1 MOL     -0.193044
     20 C7          2.1720    4.6330   -0.0110 c3        1 MOL      0.311823
     21 C8          3.0140    4.6940    1.2970 c         1 MOL      0.279535
     22 O5          3.4740    5.7040    1.7200 o         1 MOL     -0.540675
     23 C9          0.7660    5.1600    0.1910 c3        1 MOL     -0.137607
     24 C10        -0.0030    5.6600   -1.0930 c3        1 MOL      0.119592
     25 C11         0.7830    6.5920   -2.0760 c3        1 MOL     -0.105769
     26 C12         0.0500    6.6830   -3.3950 c3        1 MOL      0.140603
     27 N3          0.5360    7.8650   -4.1020 n4        1 MOL     -0.606086
     28 H8          1.2880    2.8230   -0.4560 hn        1 MOL      0.328122
     29 H9          2.5960    5.3280   -0.7370 h1        1 MOL     -0.079197
     30 H10         0.9100    6.0530    0.8010 hc        1 MOL      0.009093
     31 H11         0.1650    4.3820    0.6470 hc        1 MOL      0.009093
     32 H12        -0.9580    6.1430   -0.8450 hc        1 MOL     -0.019662
     33 H13        -0.3010    4.7760   -1.6440 hc        1 MOL     -0.019662
     34 H14         1.7480    6.1340   -2.3100 hc        1 MOL      0.060699
     35 H15         0.9060    7.5700   -1.6210 hc        1 MOL      0.060699
     36 H16        -1.0150    6.6780   -3.2200 hx        1 MOL      0.062860
     37 H17         0.3070    5.9090   -4.1170 hx        1 MOL      0.062860
     38 H18         0.4110    8.6350   -3.4600 hn        1 MOL      0.384712
     39 H19         1.4760    7.6420   -4.4090 hn        1 MOL      0.384712
     40 H20        -0.0670    8.0650   -4.8820 hn        1 MOL      0.384712
     41 N4          3.1470    3.5570    1.9480 n         1 MOL      0.075664
     42 C13         3.8760    3.4560    3.2070 c3        1 MOL     -0.128115
     43 C14         5.2460    2.6610    3.1860 c         1 MOL      0.353409
     44 O6          5.7890    2.3990    4.2850 o         1 MOL     -0.461484
     45 C15         2.9840    2.9490    4.3970 c3        1 MOL      0.148607
     46 C16         1.9630    1.8840    4.0480 c         1 MOL      0.670859
     47 O7          1.9340    1.3790    2.8870 o         1 MOL     -0.692114
     48 O8          1.3330    1.4560    4.9980 o         1 MOL     -0.692114
     49 H21         2.6420    2.7300    1.6720 hn        1 MOL     -0.117697
     50 H22         4.1650    4.4840    3.4800 h1        1 MOL      0.088111
     51 H23         2.3470    3.8100    4.6180 hc        1 MOL     -0.034243
     52 H24         3.5620    2.7970    5.3060 hc        1 MOL     -0.034243
     53 N5          5.7430    2.2050    1.9930 n         1 MOL     -0.169488
     54 C17         7.1130    1.6210    1.9070 c3        1 MOL     -0.182652
     55 C18         7.3390    0.1240    2.3910 c         1 MOL      0.497815
     56 O9          8.1820   -0.1260    3.2200 o         1 MOL     -0.532412
     57 H25         5.2590    2.4360    1.1480 hn        1 MOL      0.193695
     58 H26         7.7240    2.2350    2.5770 h1        1 MOL      0.084765
     59 H27         7.4870    1.7160    0.8860 h1        1 MOL      0.084765
     60 N6          6.4740   -0.7700    1.8600 n         1 MOL     -0.150542
     61 C19         6.5720   -2.2300    2.1540 c3        1 MOL      0.018516
     62 C20         6.7520   -3.1180    0.8790 c         1 MOL      0.242345
     63 O10         7.0730   -4.3110    1.0240 o         1 MOL     -0.476749
     64 C21         5.3950   -2.6690    2.9790 c3        1 MOL      0.044744
     65 C22         4.0980   -2.1050    2.3970 c         1 MOL      0.426797
     66 O11         3.8840   -2.4380    1.2260 o         1 MOL     -0.590984
     67 O12         3.3420   -1.3820    3.0780 o         1 MOL     -0.590984
     68 H28         5.6640   -0.4710    1.3200 hn        1 MOL      0.085503
     69 H29         7.3830   -2.4720    2.8390 h1        1 MOL      0.085659
     70 H30         5.4950   -2.2860    3.9860 hc        1 MOL      0.007430
     71 H31         5.4070   -3.7600    2.9920 hc        1 MOL      0.007430
     72 N7          6.5220   -2.5010   -0.3030 n         1 MOL     -0.072550
     73 C23         6.6560   -3.1290   -1.6530 c3        1 MOL     -0.169358
     74 C24         5.3980   -3.9530   -1.9810 c         1 MOL      0.508974
     75 O13         5.5130   -4.8440   -2.7620 o         1 MOL     -0.538846
     76 H32         6.5030   -1.4890   -0.3370 hn        1 MOL      0.135853
     77 H33         7.5420   -3.7670   -1.6480 h1        1 MOL      0.101614
     78 H34         6.7760   -2.2910   -2.3400 h1        1 MOL      0.101614
     79 N8          4.1910   -3.6090   -1.4150 n         1 MOL     -0.140760
     80 C25         2.8340   -4.2590   -1.5770 c3        1 MOL     -0.359747
     81 C26         1.6410   -3.2470   -1.5950 c         1 MOL      0.751952
     82 O14         1.7250   -2.2120   -0.9360 o         1 MOL     -0.700798
     83 C27         2.6160   -5.2790   -0.4420 c3        1 MOL      0.514561
     84 C28         3.6420   -6.4650   -0.4400 c3        1 MOL     -0.454687
     85 O15         2.5630   -4.6840    0.8350 oh        1 MOL     -0.646092
     86 H35         4.2740   -2.8000   -0.8190 hn        1 MOL      0.051222
     87 H36         2.9010   -4.7370   -2.5480 h1        1 MOL      0.111903
     88 H37         1.6380   -5.6860   -0.7070 h1        1 MOL     -0.043926
     89 H38         3.1220   -3.9060    0.8160 ho        1 MOL      0.481365
     90 H39         3.6140   -6.9590   -1.4080 hc        1 MOL      0.116668
     91 H40         4.6420   -6.0420   -0.3380 hc        1 MOL      0.116668
     92 H41         3.3130   -7.1580    0.3390 hc        1 MOL      0.116668
     93 N9          0.5930   -3.6170   -2.3040 n         1 MOL     -0.463749
     94 C29        -0.7030   -2.8770   -2.5140 c3        1 MOL      0.119907
     95 C30        -1.9080   -3.4620   -1.6680 c         1 MOL      0.384293
     96 O16        -2.0870   -4.6620   -1.6620 o         1 MOL     -0.527080
     97 C31        -1.1740   -2.6500   -3.9790 c3        1 MOL      0.096366
     98 C32         0.0310   -2.4720   -4.9480 c3        1 MOL     -0.068877
     99 C33        -2.1490   -1.4580   -4.0870 c3        1 MOL     -0.343199
    100 C34         1.1000   -1.2980   -4.7090 c3        1 MOL     -0.006252
    101 H42         0.6480   -4.4950   -2.7910 hn        1 MOL      0.290859
    102 H43        -0.5540   -1.8700   -2.1240 h1        1 MOL      0.076196
    103 H44        -1.7380   -3.5050   -4.3580 hc        1 MOL      0.004308
    104 H45        -0.2860   -2.2720   -5.9730 hc        1 MOL      0.007228
    105 H46         0.5350   -3.4400   -4.9130 hc        1 MOL      0.007228
    106 H47        -1.6020   -0.5290   -3.9020 hc        1 MOL      0.099708
    107 H48        -2.5540   -1.4570   -5.0970 hc        1 MOL      0.099708
    108 H49        -2.9820   -1.5610   -3.3940 hc        1 MOL      0.099708
    109 H50         1.9030   -1.2340   -5.4490 hc        1 MOL      0.010780
    110 H51         0.5520   -0.3560   -4.7300 hc        1 MOL      0.010780
    111 H52         1.5910   -1.4600   -3.7530 hc        1 MOL      0.010780
    112 N10        -2.6470   -2.5900   -0.9500 n         1 MOL     -0.017909
    113 C35        -3.7470   -3.0260   -0.0730 c3        1 MOL      0.043892
    114 C36        -5.1310   -2.4290   -0.5890 c         1 MOL      0.186482
    115 O17        -5.1910   -1.6520   -1.5480 o         1 MOL     -0.345794
    116 C37        -3.6010   -2.6060    1.3590 c3        1 MOL      0.253328
    117 C38        -2.3730   -3.1290    1.9510 c3        1 MOL     -0.262866
    118 O18        -3.5570   -1.2450    1.4870 oh        1 MOL     -0.529075
    119 H53        -2.3680   -1.6180   -0.9970 hn        1 MOL      0.002334
    120 H54        -3.9210   -4.0930   -0.1720 h1        1 MOL      0.059462
    121 H55        -4.4290   -2.9740    1.9650 h1        1 MOL      0.005648
    122 H56        -2.7280   -1.0540    1.0410 ho        1 MOL      0.313549
    123 H57        -1.4970   -2.9060    1.3310 hc        1 MOL      0.073582
    124 H58        -2.3720   -2.8300    3.0010 hc        1 MOL      0.073582
    125 H59        -2.4840   -4.2080    1.8930 hc        1 MOL      0.073582
    126 N11        -6.2420   -2.7480    0.0690 n         1 MOL     -0.130054
    127 C39        -7.5960   -2.1610   -0.1580 c3        1 MOL     -0.199149
    128 C40        -7.5190   -0.6320   -0.1270 c         1 MOL      0.468042
    129 O19        -7.8930    0.0630   -1.0370 o         1 MOL     -0.506187
    130 C41        -8.5840   -2.7060    0.9340 c3        1 MOL      0.271597
    131 C42        -8.8590   -4.2260    0.6840 c3        1 MOL     -0.404430
    132 O20        -8.0990   -2.4860    2.2040 oh        1 MOL     -0.642547
    133 H60        -6.1930   -3.4800    0.7690 hn        1 MOL      0.209997
    134 H61        -7.9080   -2.4340   -1.1690 h1        1 MOL      0.144233
    135 H62        -9.5040   -2.1240    0.8490 h1        1 MOL      0.046314
    136 H63        -8.6580   -2.8280    2.8990 ho        1 MOL      0.436742
    137 H64        -9.2790   -4.4470   -0.3010 hc        1 MOL      0.119526
    138 H65        -7.9080   -4.7490    0.7330 hc        1 MOL      0.119526
    139 H66        -9.5920   -4.4570    1.4490 hc        1 MOL      0.119526
    140 N12        -6.8540   -0.1160    0.9200 n         1 MOL     -0.230403
    141 C43        -6.6080    1.3330    1.1660 c3        1 MOL     -0.205328
    142 C44        -5.6570    1.9760    0.1120 c         1 MOL      0.564329
    143 O21        -5.4630    3.2100    0.2320 o         1 MOL     -0.564534
    144 C45        -6.0510    1.5450    2.5220 c3        1 MOL     -0.034393
    145 C46        -7.1040    1.1550    3.6000 c3        1 MOL      0.337607
    146 C47        -6.5980    1.1700    5.0450 c3        1 MOL     -0.299744
    147 C48        -7.4800    0.9950    6.2590 c3        1 MOL      0.047098
    148 N13        -8.3490    2.1830    6.4420 n4        1 MOL     -0.306942
    149 H67        -6.5530   -0.7290    1.6670 hn        1 MOL      0.231771
    150 H68        -7.5760    1.8040    0.9580 h1        1 MOL      0.129212
    151 H69        -5.9620    2.6080    2.7430 hc        1 MOL      0.041528
    152 H70        -5.1310    1.0170    2.7660 hc        1 MOL      0.041528
    153 H71        -7.6020    0.2060    3.3660 hc        1 MOL     -0.084502
    154 H72        -7.9510    1.8340    3.5040 hc        1 MOL     -0.084502
    155 H73        -5.9630    2.0480    5.1030 hc        1 MOL      0.105977
    156 H74        -5.9430    0.3000    5.1360 hc        1 MOL      0.105977
    157 H75        -6.9340    1.0500    7.1970 hx        1 MOL      0.102729
    158 H76        -8.0930    0.0950    6.2910 hx        1 MOL      0.102729
    159 H77        -8.9200    2.3710    5.6370 hn        1 MOL      0.310726
    160 H78        -8.9140    2.2080    7.2730 hn        1 MOL      0.310726
    161 H79        -7.7520    2.9940    6.5560 hn        1 MOL      0.310726
    162 N14        -5.0660    1.2020   -0.8020 n         1 MOL     -0.365602
    163 C49        -4.1800    1.8650   -1.7920 c3        1 MOL     -0.224305
    164 C50        -4.6320    1.3920   -3.2270 c         1 MOL      0.447704
    165 O22        -4.0500    1.7810   -4.2090 o         1 MOL     -0.534306
    166 C51        -2.7280    1.5080   -1.5950 c3        1 MOL      0.108125
    167 C52        -2.1330    1.8060   -0.1800 c3        1 MOL     -0.027751
    168 C53        -0.8700    0.9780   -0.0580 c         1 MOL      0.615542
    169 O23        -0.9600   -0.2230    0.2400 o         1 MOL     -0.698542
    170 O24         0.2790    1.3690   -0.1220 o         1 MOL     -0.698542
    171 H80        -5.1660    0.2080   -0.7140 hn        1 MOL      0.300808
    172 H81        -4.3390    2.9370   -1.7100 h1        1 MOL      0.171730
    173 H82        -2.0880    2.0050   -2.3310 hc        1 MOL      0.041213
    174 H83        -2.6350    0.4440   -1.8070 hc        1 MOL      0.041213
    175 H84        -2.8490    1.5340    0.6040 hc        1 MOL      0.020873
    176 H85        -1.9380    2.8620   -0.0830 hc        1 MOL      0.020873
    177 N15        -5.6710    0.5190   -3.3610 n         1 MOL     -0.196118
    178 C54        -6.1260   -0.0300   -4.6760 c3        1 MOL     -0.121148
    179 H86        -6.2160   -1.1150   -4.6040 h1        1 MOL      0.070278
    180 H87        -7.0940    0.3980   -4.9340 h1        1 MOL      0.070278
    181 H88        -5.3980    0.2230   -5.4470 h1        1 MOL      0.070278
    182 H89        -6.1740    0.1500   -2.5770 hn        1 MOL      0.170263
    183 Ca1         1.6250   -0.5000    1.1070 Ca        1 MOL      1.721640
    184 O25        -0.1930   -0.4920    3.2810 oh        1 MOL     -0.775621
    185 H90        -1.1230   -0.3330    3.4480 ho        1 MOL      0.362598
    186 H91         0.2650    0.0390    3.9210 ho        1 MOL      0.362598
    187 O26         0.7520   -3.0180    2.0380 oh        1 MOL     -0.775621
    188 H92         1.4190   -3.6880    1.9010 ho        1 MOL      0.362598
    189 H93         0.6020   -3.0130    2.9770 ho        1 MOL      0.362598
@<TRIPOS>BOND
     1    1    2 1   
     2    1    4 1   
     3    1    5 1   
     4    1    6 1   
     5    2    3 2   
     6    2    7 1   
     7    7    8 1   
     8    7   15 1   
     9    8    9 1   
    10    8   11 1   
    11    8   16 1   
    12    9   10 2   
    13    9   19 1   
    14   11   12 1   
    15   11   17 1   
    16   11   18 1   
    17   12   13 1   
    18   12   14 1   
    19   19   20 1   
    20   19   28 1   
    21   20   21 1   
    22   20   23 1   
    23   20   29 1   
    24   21   22 2   
    25   21   41 1   
    26   23   24 1   
    27   23   30 1   
    28   23   31 1   
    29   24   25 1   
    30   24   32 1   
    31   24   33 1   
    32   25   26 1   
    33   25   34 1   
    34   25   35 1   
    35   26   27 1   
    36   26   36 1   
    37   26   37 1   
    38   27   38 1   
    39   27   39 1   
    40   27   40 1   
    41   41   42 1   
    42   41   49 1   
    43   42   43 1   
    44   42   45 1   
    45   42   50 1   
    46   43   44 2   
    47   43   53 1   
    48   45   46 1   
    49   45   51 1   
    50   45   52 1   
    51   46   47 1   
    52   46   48 1   
    53   53   54 1   
    54   53   57 1   
    55   54   55 1   
    56   54   58 1   
    57   54   59 1   
    58   55   56 2   
    59   55   60 1   
    60   60   61 1   
    61   60   68 1   
    62   61   62 1   
    63   61   64 1   
    64   61   69 1   
    65   62   63 2   
    66   62   72 1   
    67   64   65 1   
    68   64   70 1   
    69   64   71 1   
    70   65   66 1   
    71   65   67 1   
    72   72   73 1   
    73   72   76 1   
    74   73   74 1   
    75   73   77 1   
    76   73   78 1   
    77   74   75 2   
    78   74   79 1   
    79   79   80 1   
    80   79   86 1   
    81   80   81 1   
    82   80   83 1   
    83   80   87 1   
    84   81   82 2   
    85   81   93 1   
    86   83   84 1   
    87   83   85 1   
    88   83   88 1   
    89   84   90 1   
    90   84   91 1   
    91   84   92 1   
    92   85   89 1   
    93   93   94 1   
    94   93  101 1   
    95   94   95 1   
    96   94   97 1   
    97   94  102 1   
    98   95   96 2   
    99   95  112 1   
   100   97   98 1   
   101   97   99 1   
   102   97  103 1   
   103   98  100 1   
   104   98  104 1   
   105   98  105 1   
   106   99  106 1   
   107   99  107 1   
   108   99  108 1   
   109  100  109 1   
   110  100  110 1   
   111  100  111 1   
   112  112  113 1   
   113  112  119 1   
   114  113  114 1   
   115  113  116 1   
   116  113  120 1   
   117  114  115 2   
   118  114  126 1   
   119  116  117 1   
   120  116  118 1   
   121  116  121 1   
   122  117  123 1   
   123  117  124 1   
   124  117  125 1   
   125  118  122 1   
   126  126  127 1   
   127  126  133 1   
   128  127  128 1   
   129  127  130 1   
   130  127  134 1   
   131  128  129 2   
   132  128  140 1   
   133  130  131 1   
   134  130  132 1   
   135  130  135 1   
   136  131  137 1   
   137  131  138 1   
   138  131  139 1   
   139  132  136 1   
   140  140  141 1   
   141  140  149 1   
   142  141  142 1   
   143  141  144 1   
   144  141  150 1   
   145  142  143 2   
   146  142  162 1   
   147  144  145 1   
   148  144  151 1   
   149  144  152 1   
   150  145  146 1   
   151  145  153 1   
   152  145  154 1   
   153  146  147 1   
   154  146  155 1   
   155  146  156 1   
   156  147  148 1   
   157  147  157 1   
   158  147  158 1   
   159  148  159 1   
   160  148  160 1   
   161  148  161 1   
   162  162  163 1   
   163  162  171 1   
   164  163  164 1   
   165  163  166 1   
   166  163  172 1   
   167  164  165 2   
   168  164  177 1   
   169  166  167 1   
   170  166  173 1   
   171  166  174 1   
   172  167  168 1   
   173  167  175 1   
   174  167  176 1   
   175  168  169 1   
   176  168  170 1   
   177  177  178 1   
   178  177  182 1   
   179  178  179 1   
   180  178  180 1   
   181  178  181 1   
   182  184  185 1   
   183  184  186 1   
   184  187  188 1   
   185  187  189 1   
@<TRIPOS>SUBSTRUCTURE
     1 MOL         1 TEMP              0 ****  ****    0 ROOT
