@<TRIPOS>MOLECULE
MOL
  186   183     1     0     0
SMALL
resp


@<TRIPOS>ATOM
      1 C1         -0.4530   -1.4750    6.2880 c3        1 MOL     -0.299547
      2 C2          0.0550   -1.7380    4.8430 c         1 MOL      0.718972
      3 O1         -0.6570   -2.4500    4.1310 o         1 MOL     -0.568025
      4 H1          0.1970   -1.9850    6.9990 hc        1 MOL      0.066733
      5 H2         -0.4410   -0.4040    6.4890 hc        1 MOL      0.066733
      6 H3         -1.4700   -1.8530    6.3890 hc        1 MOL      0.066733
      7 N1          1.2430   -1.3640    4.4410 n         1 MOL     -0.545514
      8 C3          1.7690   -1.7750    3.0980 c3        1 MOL      0.153063
      9 C4          1.9570   -3.2970    2.8860 c         1 MOL      0.498544
     10 O2          2.2900   -3.9920    3.8610 o         1 MOL     -0.570468
     11 C5          3.1380   -1.0950    2.8880 c3        1 MOL     -0.378681
     12 C6          3.9360   -1.4830    1.6710 c         1 MOL      0.683145
     13 O3          4.9670   -2.1340    2.0450 o         1 MOL     -0.641465
     14 O4          3.6510   -1.1640    0.4890 o         1 MOL     -0.641465
     15 H4          1.7360   -0.7090    5.0250 hn        1 MOL      0.282593
     16 H5          1.0580   -1.3180    2.4010 h1        1 MOL     -0.000097
     17 H6          3.6610   -1.2230    3.8290 hc        1 MOL      0.099598
     18 H7          2.8620   -0.0390    2.8070 hc        1 MOL      0.099598
     19 N2          1.8180   -3.7300    1.6570 n         1 MOL     -0.123155
     20 C7          2.0110   -5.1500    1.2110 c3        1 MOL     -0.094959
     21 C8          3.1710   -5.2280    0.1120 c         1 MOL      0.449367
     22 O5          3.5220   -6.3650   -0.2310 o         1 MOL     -0.567251
     23 C9          0.8270   -5.9860    0.8460 c3        1 MOL      0.190936
     24 C10         0.1520   -5.3650   -0.4390 c3        1 MOL      0.100998
     25 C11        -0.1370   -5.9070    1.9850 c3        1 MOL     -0.347879
     26 C12        -1.0910   -6.1650   -0.9250 c3        1 MOL     -0.313978
     27 H8          1.6080   -3.0850    0.9090 hn        1 MOL      0.244537
     28 H9          2.4690   -5.5970    2.0920 h1        1 MOL      0.063484
     29 H10         1.1460   -7.0010    0.6000 hc        1 MOL     -0.008956
     30 H11         0.9580   -5.1720   -1.1490 hc        1 MOL     -0.006078
     31 H12        -0.1950   -4.3730   -0.1600 hc        1 MOL     -0.006078
     32 H13        -1.0070   -6.5560    1.8500 hc        1 MOL      0.075037
     33 H14         0.3300   -6.1230    2.9510 hc        1 MOL      0.075037
     34 H15        -0.4870   -4.8960    2.1960 hc        1 MOL      0.075037
     35 H16        -1.8050   -6.1640   -0.1090 hc        1 MOL      0.073629
     36 H17        -1.5350   -5.6710   -1.7930 hc        1 MOL      0.073629
     37 H18        -0.8340   -7.1850   -1.2090 hc        1 MOL      0.073629
     38 N3          3.6910   -4.1380   -0.4690 n         1 MOL     -0.215253
     39 C13         4.4600   -4.2590   -1.6990 c3        1 MOL     -0.017112
     40 C14         5.7910   -3.4750   -1.7750 c         1 MOL      0.375158
     41 O6          6.3970   -3.3760   -2.8670 o         1 MOL     -0.510442
     42 C15         3.6110   -4.1110   -2.9570 c3        1 MOL      0.019314
     43 C16         2.8230   -2.8220   -3.1580 c         1 MOL      0.788133
     44 O7          3.1210   -1.8130   -2.5010 o         1 MOL     -0.754912
     45 O8          1.8940   -2.8380   -4.0290 o         1 MOL     -0.754912
     46 H19         3.4290   -3.1850   -0.2520 hn        1 MOL      0.020800
     47 H20         4.7950   -5.2960   -1.7110 h1        1 MOL      0.075603
     48 H21         2.8160   -4.8520   -3.0230 hc        1 MOL     -0.013151
     49 H22         4.2320   -4.3070   -3.8270 hc        1 MOL     -0.013151
     50 N4          6.3550   -3.1300   -0.6470 n         1 MOL     -0.114350
     51 C17         7.7620   -2.7200   -0.5140 c3        1 MOL     -0.368733
     52 C18         8.2010   -1.3530   -1.0490 c         1 MOL      0.583151
     53 O9          9.2860   -1.2880   -1.5550 o         1 MOL     -0.563850
     54 H23         5.7910   -3.2590    0.1840 hn        1 MOL      0.187764
     55 H24         8.3770   -3.4530   -1.0360 h1        1 MOL      0.136113
     56 H25         7.9620   -2.7210    0.5580 h1        1 MOL      0.136113
     57 N5          7.3490   -0.3320   -0.9380 n         1 MOL     -0.320901
     58 C19         7.6330    1.0120   -1.3910 c3        1 MOL      0.039874
     59 C20         7.5190    2.1470   -0.4260 c         1 MOL      0.309599
     60 O10         7.7100    3.3530   -0.7860 o         1 MOL     -0.514794
     61 C21         6.7170    1.3300   -2.6150 c3        1 MOL     -0.049903
     62 C22         5.2350    1.0930   -2.2310 c         1 MOL      0.814902
     63 O11         4.8000    1.4640   -1.1150 o         1 MOL     -0.743276
     64 O12         4.4060    0.6970   -3.0150 o         1 MOL     -0.743276
     65 H26         6.4180   -0.4970   -0.5740 hn        1 MOL      0.231524
     66 H27         8.6740    1.0530   -1.7200 h1        1 MOL      0.076880
     67 H28         6.9730    0.6510   -3.4290 hc        1 MOL      0.014580
     68 H29         6.9150    2.3350   -2.9910 hc        1 MOL      0.014580
     69 N6          7.3710    1.8120    0.8120 n         1 MOL     -0.205040
     70 C23         7.2680    2.7320    1.8520 c3        1 MOL      0.016563
     71 C24         6.0490    3.7200    1.7740 c         1 MOL      0.473520
     72 O13         6.2050    4.7400    2.4100 o         1 MOL     -0.591676
     73 H30         7.3270    0.8070    0.9450 hn        1 MOL      0.208600
     74 H31         8.2000    3.2640    1.9660 h1        1 MOL      0.036341
     75 H32         7.1860    2.1430    2.7690 h1        1 MOL      0.036341
     76 N7          5.0460    3.4450    0.9910 n         1 MOL     -0.226694
     77 C25         3.7000    4.1430    1.0490 c3        1 MOL     -0.002347
     78 C26         2.5080    3.1560    1.1850 c         1 MOL      0.625290
     79 O14         2.5930    1.9960    0.8400 o         1 MOL     -0.655365
     80 C27         3.5360    4.9190   -0.2510 c3        1 MOL      0.124030
     81 C28         4.4860    6.1870   -0.4380 c3        1 MOL     -0.360874
     82 C29         4.6240    6.5330   -1.9120 c         1 MOL      0.745694
     83 N8          5.3980    7.5590   -2.2250 n         1 MOL     -0.829037
     84 O15         4.1170    5.8940   -2.8340 o         1 MOL     -0.576212
     85 H33         5.1640    2.7010    0.3240 hn        1 MOL      0.170493
     86 H34         3.7400    4.8430    1.8870 h1        1 MOL      0.042134
     87 H35         2.4990    5.2470   -0.3610 hc        1 MOL      0.016951
     88 H36         3.7270    4.2280   -1.0740 hc        1 MOL      0.016951
     89 H37         5.4570    5.8790   -0.0520 hc        1 MOL      0.091552
     90 H38         4.0550    7.0250    0.1060 hc        1 MOL      0.091552
     91 H39         5.7450    8.1240   -1.4700 hn        1 MOL      0.366772
     92 H40         5.5890    7.6760   -3.1990 hn        1 MOL      0.366772
     93 N9          1.3540    3.6650    1.6930 n         1 MOL     -0.519715
     94 C30         0.0910    2.9820    1.8000 c3        1 MOL      0.213483
     95 C31        -0.9060    3.4820    0.7430 c         1 MOL      0.424595
     96 O16        -1.0320    4.7250    0.5660 o         1 MOL     -0.575207
     97 C32        -0.5020    3.0090    3.2110 c3        1 MOL      0.141443
     98 C33        -1.8610    2.2810    3.3490 c3        1 MOL     -0.264207
     99 C34         0.5200    2.3250    4.1760 c3        1 MOL     -0.264207
    100 H41         1.4520    4.6690    1.7930 hn        1 MOL      0.260307
    101 H42         0.2440    1.9820    1.3860 h1        1 MOL      0.104066
    102 H43        -0.6850    4.0620    3.4170 hc        1 MOL     -0.015665
    103 H44        -1.7620    1.2750    2.9280 hc        1 MOL      0.054683
    104 H45        -2.1110    2.1500    4.3970 hc        1 MOL      0.054683
    105 H46        -2.5770    2.8850    2.7890 hc        1 MOL      0.054683
    106 H47         0.6620    1.2940    3.8460 hc        1 MOL      0.054683
    107 H48         1.5080    2.7710    4.1100 hc        1 MOL      0.054683
    108 H49         0.1650    2.3010    5.2070 hc        1 MOL      0.054683
    109 N10        -1.4370    2.6180   -0.1100 n         1 MOL     -0.201836
    110 C35        -2.6430    2.9710   -0.7990 c3        1 MOL      0.154059
    111 C36        -3.9270    2.5840   -0.1200 c         1 MOL      0.374085
    112 O17        -3.9450    1.7320    0.7530 o         1 MOL     -0.247304
    113 C37        -2.5170    2.5630   -2.2740 c3        1 MOL     -0.429791
    114 C38        -3.0740    1.1640   -2.4800 c         1 MOL      0.746176
    115 N11        -2.3890    0.0830   -2.1480 n         1 MOL     -0.775818
    116 O18        -4.2020    1.0420   -2.9420 o         1 MOL     -0.581928
    117 H50        -1.3350    1.6210    0.0500 hn        1 MOL      0.023318
    118 H51        -2.6940    4.0440   -0.6460 h1        1 MOL      0.038105
    119 H52        -1.4730    2.5780   -2.5890 hc        1 MOL      0.129713
    120 H53        -3.1090    3.1050   -3.0120 hc        1 MOL      0.129713
    121 H54        -1.5170    0.1450   -1.6430 hn        1 MOL      0.402865
    122 H55        -2.6900   -0.8700   -2.2760 hn        1 MOL      0.402865
    123 N12        -5.0320    3.0540   -0.7090 n         1 MOL     -0.488253
    124 C39        -6.3680    2.7440   -0.3170 c3        1 MOL      0.249509
    125 C40        -6.5540    1.2380   -0.1190 c         1 MOL      0.524045
    126 O19        -7.1670    0.8400    0.8920 o         1 MOL     -0.578230
    127 C41        -7.4490    3.2140   -1.2960 c3        1 MOL     -0.241170
    128 C42        -8.8300    2.6900   -0.9790 ca        1 MOL      0.113599
    129 C43        -9.4950    3.2480    0.1470 ca        1 MOL     -0.250718
    130 C44        -9.4620    1.7640   -1.8150 ca        1 MOL     -0.250718
    131 C45       -10.7880    2.7500    0.5200 ca        1 MOL     -0.180842
    132 C46       -10.7120    1.2720   -1.4670 ca        1 MOL     -0.180842
    133 C47       -11.3970    1.7600   -0.2980 ca        1 MOL      0.323013
    134 O20       -12.6680    1.3590   -0.0750 oh        1 MOL     -0.579786
    135 H56        -4.8510    3.8600   -1.2870 hn        1 MOL      0.290776
    136 H57        -6.5500    3.1890    0.6660 h1        1 MOL      0.006799
    137 H58        -7.1650    2.9100   -2.3080 hc        1 MOL      0.066332
    138 H59        -7.4320    4.3010   -1.1850 hc        1 MOL      0.066332
    139 H60        -8.9760    4.0600    0.6360 ha        1 MOL      0.160370
    140 H61        -8.9550    1.4200   -2.7010 ha        1 MOL      0.160370
    141 H62       -11.4230    3.1800    1.2890 ha        1 MOL      0.127805
    142 H63       -11.2140    0.5410   -2.0800 ha        1 MOL      0.127805
    143 H64       -12.9580    0.5590   -0.5170 ho        1 MOL      0.422005
    144 N13        -6.0880    0.3670   -1.0290 n         1 MOL     -0.135948
    145 C48        -6.4520   -1.0400   -0.8670 c3        1 MOL      0.115437
    146 C49        -5.5510   -1.7740    0.1670 c         1 MOL      0.330823
    147 O21        -6.0040   -2.7840    0.6600 o         1 MOL     -0.493545
    148 C50        -6.5480   -1.6830   -2.3160 c3        1 MOL     -0.182195
    149 C51        -6.9620   -3.1340   -2.2620 c3        1 MOL     -0.134092
    150 C52        -7.3690   -3.6210   -3.6650 c         1 MOL      0.735306
    151 O22        -8.5350   -3.8110   -3.9090 o         1 MOL     -0.761391
    152 O23        -6.4530   -3.9700   -4.4180 o         1 MOL     -0.761391
    153 H65        -5.5870    0.6420   -1.8640 hn        1 MOL      0.109976
    154 H66        -7.4710   -1.0300   -0.4710 h1        1 MOL      0.069548
    155 H67        -5.5710   -1.6290   -2.7930 hc        1 MOL      0.062711
    156 H68        -7.3410   -1.1690   -2.8640 hc        1 MOL      0.062711
    157 H69        -7.8510   -3.2260   -1.6510 hc        1 MOL      0.021145
    158 H70        -6.1540   -3.7660   -1.8950 hc        1 MOL      0.021145
    159 N14        -4.3890   -1.1400    0.4720 n         1 MOL     -0.012590
    160 C53        -3.5870   -1.5450    1.6140 c3        1 MOL     -0.163603
    161 C54        -4.2180   -1.1750    2.9780 c         1 MOL      0.490764
    162 O24        -4.1820   -2.0120    3.9010 o         1 MOL     -0.547735
    163 C55        -2.1600   -0.9910    1.4220 c3        1 MOL      0.082140
    164 C56        -1.3220   -1.8690    0.5270 c3        1 MOL      0.115047
    165 C57        -0.1470   -1.0720   -0.0150 c         1 MOL      0.488850
    166 O25         0.8920   -1.6640   -0.2860 o         1 MOL     -0.641445
    167 O26        -0.2050    0.1450   -0.2840 o         1 MOL     -0.641445
    168 H71        -4.2810   -0.1910    0.1570 hn        1 MOL     -0.161520
    169 H72        -3.6570   -2.6280    1.5810 h1        1 MOL      0.106979
    170 H73        -1.6800   -0.9690    2.4030 hc        1 MOL      0.024532
    171 H74        -2.2780   -0.0670    0.8620 hc        1 MOL      0.024532
    172 H75        -1.8900   -2.1590   -0.3610 hc        1 MOL     -0.003243
    173 H76        -1.0300   -2.7690    1.0590 hc        1 MOL     -0.003243
    174 N15        -4.8070    0.0430    3.0480 n         1 MOL     -0.060480
    175 C58        -5.3550    0.6910    4.2380 c3        1 MOL     -0.199742
    176 H77        -4.8620    0.2960    5.1260 h1        1 MOL      0.076243
    177 H78        -5.1860    1.7660    4.1770 h1        1 MOL      0.076243
    178 H79        -6.4250    0.4950    4.2990 h1        1 MOL      0.076243
    179 H80        -4.6000    0.6130    2.2420 hn        1 MOL      0.033898
    180 Ca1         2.3660    0.2740   -1.2140 Ca        1 MOL      1.792891
    181 O27         1.9710    2.6900   -2.2170 oh        1 MOL     -0.912369
    182 H81         2.5650    3.3670   -2.5570 ho        1 MOL      0.424987
    183 H82         1.2120    2.7250   -2.8010 ho        1 MOL      0.424987
    184 O28         0.6020   -0.4250   -3.1940 oh        1 MOL     -0.912369
    185 H83         0.9010   -1.3230   -3.1260 ho        1 MOL      0.424987
    186 H84         0.3170   -0.3350   -4.1090 ho        1 MOL      0.424987
@<TRIPOS>BOND
     1    1    2 1   
     2    1    4 1   
     3    1    5 1   
     4    1    6 1   
     5    2    3 2   
     6    2    7 1   
     7    7    8 1   
     8    7   15 1   
     9    8    9 1   
    10    8   11 1   
    11    8   16 1   
    12    9   10 2   
    13    9   19 1   
    14   11   12 1   
    15   11   17 1   
    16   11   18 1   
    17   12   13 1   
    18   12   14 1   
    19   19   20 1   
    20   19   27 1   
    21   20   21 1   
    22   20   23 1   
    23   20   28 1   
    24   21   22 2   
    25   21   38 1   
    26   23   24 1   
    27   23   25 1   
    28   23   29 1   
    29   24   26 1   
    30   24   30 1   
    31   24   31 1   
    32   25   32 1   
    33   25   33 1   
    34   25   34 1   
    35   26   35 1   
    36   26   36 1   
    37   26   37 1   
    38   38   39 1   
    39   38   46 1   
    40   39   40 1   
    41   39   42 1   
    42   39   47 1   
    43   40   41 2   
    44   40   50 1   
    45   42   43 1   
    46   42   48 1   
    47   42   49 1   
    48   43   44 1   
    49   43   45 1   
    50   50   51 1   
    51   50   54 1   
    52   51   52 1   
    53   51   55 1   
    54   51   56 1   
    55   52   53 2   
    56   52   57 1   
    57   57   58 1   
    58   57   65 1   
    59   58   59 1   
    60   58   61 1   
    61   58   66 1   
    62   59   60 2   
    63   59   69 1   
    64   61   62 1   
    65   61   67 1   
    66   61   68 1   
    67   62   63 1   
    68   62   64 1   
    69   69   70 1   
    70   69   73 1   
    71   70   71 1   
    72   70   74 1   
    73   70   75 1   
    74   71   72 2   
    75   71   76 1   
    76   76   77 1   
    77   76   85 1   
    78   77   78 1   
    79   77   80 1   
    80   77   86 1   
    81   78   79 2   
    82   78   93 1   
    83   80   81 1   
    84   80   87 1   
    85   80   88 1   
    86   81   82 1   
    87   81   89 1   
    88   81   90 1   
    89   82   83 1   
    90   82   84 2   
    91   83   91 1   
    92   83   92 1   
    93   93   94 1   
    94   93  100 1   
    95   94   95 1   
    96   94   97 1   
    97   94  101 1   
    98   95   96 2   
    99   95  109 1   
   100   97   98 1   
   101   97   99 1   
   102   97  102 1   
   103   98  103 1   
   104   98  104 1   
   105   98  105 1   
   106   99  106 1   
   107   99  107 1   
   108   99  108 1   
   109  109  110 1   
   110  109  117 1   
   111  110  111 1   
   112  110  113 1   
   113  110  118 1   
   114  111  112 2   
   115  111  123 1   
   116  113  114 1   
   117  113  119 1   
   118  113  120 1   
   119  114  115 1   
   120  114  116 2   
   121  115  121 1   
   122  115  122 1   
   123  123  124 1   
   124  123  135 1   
   125  124  125 1   
   126  124  127 1   
   127  124  136 1   
   128  125  126 2   
   129  125  144 1   
   130  127  128 1   
   131  127  137 1   
   132  127  138 1   
   133  128  129 ar  
   134  128  130 ar  
   135  129  131 ar  
   136  129  139 1   
   137  130  132 ar  
   138  130  140 1   
   139  131  133 ar  
   140  131  141 1   
   141  132  133 ar  
   142  132  142 1   
   143  133  134 1   
   144  134  143 1   
   145  144  145 1   
   146  144  153 1   
   147  145  146 1   
   148  145  148 1   
   149  145  154 1   
   150  146  147 2   
   151  146  159 1   
   152  148  149 1   
   153  148  155 1   
   154  148  156 1   
   155  149  150 1   
   156  149  157 1   
   157  149  158 1   
   158  150  151 1   
   159  150  152 1   
   160  159  160 1   
   161  159  168 1   
   162  160  161 1   
   163  160  163 1   
   164  160  169 1   
   165  161  162 2   
   166  161  174 1   
   167  163  164 1   
   168  163  170 1   
   169  163  171 1   
   170  164  165 1   
   171  164  172 1   
   172  164  173 1   
   173  165  166 1   
   174  165  167 1   
   175  174  175 1   
   176  174  179 1   
   177  175  176 1   
   178  175  177 1   
   179  175  178 1   
   180  181  182 1   
   181  181  183 1   
   182  184  185 1   
   183  184  186 1   
@<TRIPOS>SUBSTRUCTURE
     1 MOL         1 TEMP              0 ****  ****    0 ROOT
