@<TRIPOS>MOLECULE
MOL
  172   171     1     0     0
SMALL
resp


@<TRIPOS>ATOM
      1 C1          0.4520    4.3240    5.3590 c3        1 MOL     -0.332113
      2 C2         -0.1870    4.1010    4.0310 c         1 MOL      0.751911
      3 O1          0.4650    4.3160    3.0120 o         1 MOL     -0.564052
      4 H1          1.5150    4.5240    5.2210 hc        1 MOL      0.079587
      5 H2         -0.0170    5.1770    5.8500 hc        1 MOL      0.079587
      6 H3          0.3270    3.4360    5.9760 hc        1 MOL      0.079587
      7 N1         -1.4600    3.6650    3.9260 n         1 MOL     -0.645927
      8 C3         -2.0220    3.3740    2.6190 c3        1 MOL      0.025720
      9 C4         -2.2110    4.6690    1.8370 c         1 MOL      0.679786
     10 O2         -2.5100    5.7530    2.3380 o         1 MOL     -0.592809
     11 C5         -3.4320    2.6930    2.7820 c3        1 MOL     -0.285237
     12 C6         -4.1350    2.5380    1.4290 c         1 MOL      0.625420
     13 O3         -5.2920    2.9060    1.2630 o         1 MOL     -0.616638
     14 O4         -3.4570    1.9920    0.5030 o         1 MOL     -0.616638
     15 H4         -2.0560    3.4850    4.7170 hn        1 MOL      0.327096
     16 H5         -1.3780    2.7070    2.0560 h1        1 MOL      0.061047
     17 H6         -4.0270    3.3580    3.4140 hc        1 MOL      0.082008
     18 H7         -3.3180    1.7400    3.2980 hc        1 MOL      0.082008
     19 N2         -2.1890    4.5890    0.4950 n         1 MOL     -0.524275
     20 C7         -2.6970    5.5750   -0.3730 c3        1 MOL      0.423544
     21 C8         -3.7560    5.1610   -1.4360 c         1 MOL      0.503058
     22 O5         -4.1400    5.9630   -2.2610 o         1 MOL     -0.594061
     23 C9         -1.4320    6.2950   -0.9300 c3        1 MOL     -0.392676
     24 H8         -1.8580    3.7070    0.1400 hn        1 MOL      0.277360
     25 H9         -3.3130    6.2700    0.2050 h1        1 MOL     -0.020530
     26 H10        -1.0510    6.8760   -0.0890 hc        1 MOL      0.082433
     27 H11        -0.7160    5.6350   -1.4230 hc        1 MOL      0.082433
     28 H12        -1.7830    6.9760   -1.6930 hc        1 MOL      0.082433
     29 N3         -4.2140    3.8920   -1.4680 n         1 MOL     -0.425756
     30 C10        -4.8590    3.2320   -2.6610 c3        1 MOL      0.162233
     31 C11        -6.1640    2.4670   -2.2640 c         1 MOL      0.322063
     32 O6         -6.8530    2.1210   -3.2330 o         1 MOL     -0.541824
     33 C12        -3.8580    2.3610   -3.4410 c3        1 MOL     -0.163711
     34 C13        -3.2060    1.2600   -2.6330 c         1 MOL      0.764210
     35 O7         -3.9310    0.5590   -1.9130 o         1 MOL     -0.712129
     36 O8         -1.9810    1.2010   -2.7790 o         1 MOL     -0.712129
     37 H13        -3.8980    3.1900   -0.8180 hn        1 MOL      0.195750
     38 H14        -5.0990    4.0610   -3.3280 h1        1 MOL      0.055052
     39 H15        -3.0050    2.9360   -3.7930 hc        1 MOL      0.036081
     40 H16        -4.4340    1.9220   -4.2540 hc        1 MOL      0.036081
     41 N4         -6.4770    2.1180   -0.9990 n         1 MOL     -0.156121
     42 C14        -7.6530    1.3160   -0.7210 c3        1 MOL     -0.123725
     43 C15        -7.6660   -0.1440   -1.0180 c         1 MOL      0.516954
     44 O9         -8.7540   -0.6970   -0.9010 o         1 MOL     -0.603708
     45 H17        -5.9510    2.5590   -0.2560 hn        1 MOL      0.191655
     46 H18        -8.5170    1.7760   -1.1870 h1        1 MOL      0.075920
     47 H19        -7.8230    1.3820    0.3520 h1        1 MOL      0.075920
     48 N5         -6.4750   -0.7030   -1.3780 n         1 MOL     -0.086263
     49 C16        -6.4360   -2.0250   -1.9290 c3        1 MOL      0.034215
     50 C17        -6.3240   -3.1420   -0.8320 c         1 MOL      0.343149
     51 O10        -6.1520   -4.3450   -1.1550 o         1 MOL     -0.477460
     52 C18        -5.2360   -2.1350   -2.9670 c3        1 MOL     -0.347456
     53 C19        -3.8120   -2.2910   -2.3400 c         1 MOL      0.698606
     54 N6         -2.8550   -2.5700   -3.1870 n         1 MOL     -0.657135
     55 O11        -3.5490   -2.1940   -1.1670 o         1 MOL     -0.606833
     56 H20        -5.6000   -0.2000   -1.4000 hn        1 MOL      0.049256
     57 H21        -7.3910   -2.1510   -2.4440 h1        1 MOL      0.101295
     58 H22        -5.3320   -1.2600   -3.6130 hc        1 MOL      0.109253
     59 H23        -5.3670   -3.0110   -3.5980 hc        1 MOL      0.109253
     60 H24        -3.0750   -2.6950   -4.1720 hn        1 MOL      0.336273
     61 H25        -1.9400   -2.6050   -2.7590 hn        1 MOL      0.336273
     62 N7         -6.4810   -2.8830    0.4950 n         1 MOL     -0.269782
     63 C20        -6.4590   -3.7800    1.6370 c3        1 MOL     -0.096192
     64 C21        -5.1580   -4.3890    2.1710 c         1 MOL      0.511128
     65 O12        -5.1070   -5.1980    3.0380 o         1 MOL     -0.560862
     66 H26        -6.5820   -1.9160    0.7410 hn        1 MOL      0.234909
     67 H27        -7.0900   -4.6200    1.3430 h1        1 MOL      0.085991
     68 H28        -6.9350   -3.3490    2.5140 h1        1 MOL      0.085991
     69 N8         -4.0120   -4.0430    1.5130 n         1 MOL     -0.156853
     70 C22        -2.6810   -4.6180    1.6530 c3        1 MOL     -0.098336
     71 C23        -1.5520   -3.5630    1.5920 c         1 MOL      0.411535
     72 O13        -1.7030   -2.5870    0.8650 o         1 MOL     -0.422201
     73 C24        -2.3020   -5.4480    0.4190 c3        1 MOL      0.459222
     74 C25        -3.1650   -6.6780    0.4000 c3        1 MOL     -0.602006
     75 O14        -2.5580   -4.8530   -0.8440 oh        1 MOL     -0.503075
     76 H29        -4.0750   -3.3670    0.7720 hn        1 MOL      0.063614
     77 H30        -2.5490   -5.1500    2.5950 h1        1 MOL      0.102944
     78 H31        -1.2690   -5.7930    0.4390 h1        1 MOL     -0.022704
     79 H32        -2.3870   -3.9160   -0.7170 ho        1 MOL      0.280971
     80 H33        -2.7920   -7.2680   -0.4310 hc        1 MOL      0.150122
     81 H34        -3.0610   -7.1000    1.3910 hc        1 MOL      0.150122
     82 H35        -4.1910   -6.4060    0.1420 hc        1 MOL      0.150122
     83 N9         -0.4220   -3.7010    2.2610 n         1 MOL     -0.527893
     84 C26         0.7770   -2.8280    2.0650 c3        1 MOL      0.007021
     85 C27         1.4990   -3.0750    0.7280 c         1 MOL      0.640054
     86 O15         2.0150   -4.1940    0.5140 o         1 MOL     -0.597424
     87 C28         1.7400   -2.9860    3.2420 c3        1 MOL      0.152551
     88 C29         0.9920   -2.5670    4.6120 c3        1 MOL      0.048624
     89 C30         3.1090   -2.1930    3.1110 c3        1 MOL     -0.005657
     90 C31         1.8230   -2.6520    5.8440 c3        1 MOL     -0.174930
     91 H36        -0.2860   -4.5680    2.7570 hn        1 MOL      0.290507
     92 H37         0.4180   -1.8140    2.2330 h1        1 MOL      0.068304
     93 H38         2.1430   -4.0000    3.1890 hc        1 MOL     -0.037018
     94 H39         0.2130   -3.3240    4.6620 hc        1 MOL     -0.004381
     95 H40         0.5800   -1.5550    4.5260 hc        1 MOL     -0.004381
     96 H41         3.4680   -2.3740    2.0950 hc        1 MOL     -0.011144
     97 H42         2.9720   -1.1300    3.2480 hc        1 MOL     -0.011144
     98 H43         3.9580   -2.4850    3.7180 hc        1 MOL     -0.011144
     99 H44         1.1370   -2.5250    6.6810 hc        1 MOL      0.033357
    100 H45         2.3550   -3.5810    6.0280 hc        1 MOL      0.033357
    101 H46         2.5010   -1.7990    5.8090 hc        1 MOL      0.033357
    102 N10         1.7170   -2.0190   -0.0850 n         1 MOL     -0.283621
    103 C32         2.4480   -2.0530   -1.3140 c3        1 MOL      0.073117
    104 C33         3.9110   -1.4900   -1.2030 c         1 MOL      0.421419
    105 O16         4.1540   -0.7330   -0.2660 o         1 MOL     -0.305471
    106 C34         1.6960   -1.3140   -2.4450 c3        1 MOL     -0.075430
    107 C35         0.2390   -1.7000   -2.7120 c         1 MOL      0.617562
    108 O17        -0.6360   -1.4890   -1.8140 o         1 MOL     -0.643398
    109 O18        -0.0730   -2.2750   -3.7900 o         1 MOL     -0.643398
    110 H47         1.3440   -1.1020    0.1460 hn        1 MOL      0.050598
    111 H48         2.5410   -3.0660   -1.7000 h1        1 MOL      0.050716
    112 H49         2.1690   -1.3820   -3.4230 hc        1 MOL      0.020914
    113 H50         1.7000   -0.2570   -2.1620 hc        1 MOL      0.020914
    114 N11         4.8720   -1.7040   -2.0570 n         1 MOL     -0.630792
    115 C36         6.2790   -1.5160   -1.6100 c3        1 MOL      0.349142
    116 C37         6.6840    0.0020   -1.2790 c         1 MOL      0.329539
    117 O19         7.2930    0.1680   -0.1680 o         1 MOL     -0.465911
    118 C38         7.2520   -2.1070   -2.5940 c3        1 MOL     -0.240552
    119 C39         8.7290   -1.9820   -2.1020 ca        1 MOL      0.190705
    120 C40         9.5990   -1.0190   -2.6790 ca        1 MOL     -0.294873
    121 C41         9.2060   -2.7530   -1.0350 ca        1 MOL     -0.294873
    122 C42        10.8810   -0.8820   -2.0830 ca        1 MOL      0.023259
    123 C43        10.5340   -2.6090   -0.5570 ca        1 MOL      0.023259
    124 C44        11.4070   -1.6320   -1.1050 ca        1 MOL     -0.233802
    125 H51         4.6630   -2.0480   -2.9790 hn        1 MOL      0.330246
    126 H52         6.4140   -2.0040   -0.6360 h1        1 MOL      0.055661
    127 H53         7.1240   -1.5180   -3.5070 hc        1 MOL      0.068179
    128 H54         7.0710   -3.1700   -2.7290 hc        1 MOL      0.068179
    129 H55         9.3300   -0.3880   -3.5050 ha        1 MOL      0.148270
    130 H56         8.5570   -3.4920   -0.5880 ha        1 MOL      0.148270
    131 H57        11.4540   -0.0660   -2.5090 ha        1 MOL      0.075845
    132 H58        10.8730   -3.2370    0.2530 ha        1 MOL      0.075845
    133 H59        12.3990   -1.4020   -0.7300 ha        1 MOL      0.133262
    134 N12         6.3930    1.0600   -2.0720 n         1 MOL     -0.070073
    135 C45         6.7070    2.4370   -1.5500 c3        1 MOL     -0.058564
    136 C46         6.0790    2.7670   -0.2040 c         1 MOL      0.525863
    137 O20         6.6770    3.4730    0.5550 o         1 MOL     -0.513266
    138 C47         6.1310    3.4040   -2.5740 c3        1 MOL     -0.106855
    139 C48         5.0670    2.5530   -3.3050 c3        1 MOL      0.006444
    140 C49         5.5250    1.1380   -3.2230 c3        1 MOL     -0.040818
    141 H60         7.7800    2.5530   -1.3970 h1        1 MOL      0.066111
    142 H61         5.7130    4.3160   -2.1490 hc        1 MOL      0.063053
    143 H62         6.9040    3.7430   -3.2750 hc        1 MOL      0.063053
    144 H63         4.0500    2.6040   -2.9160 hc        1 MOL      0.023309
    145 H64         5.1560    2.9350   -4.3260 hc        1 MOL      0.023309
    146 H65         4.6200    0.5380   -3.1640 h1        1 MOL      0.033764
    147 H66         6.1490    0.9050   -4.0850 h1        1 MOL      0.033764
    148 N13         4.8420    2.2450    0.1160 n         1 MOL     -0.413428
    149 C50         4.2170    2.4380    1.4300 c3        1 MOL     -0.091183
    150 C51         4.9030    1.6770    2.6240 c         1 MOL      0.422843
    151 O21         4.9430    2.1430    3.7790 o         1 MOL     -0.546680
    152 C52         2.8230    1.8790    1.3800 c3        1 MOL      0.249616
    153 C53         1.9440    2.1870    0.1870 c3        1 MOL     -0.233964
    154 C54         0.5520    1.5700    0.4360 c         1 MOL      0.778969
    155 O22        -0.4370    2.1050   -0.1340 o         1 MOL     -0.744586
    156 O23         0.3930    0.4650    0.9300 o         1 MOL     -0.744586
    157 H67         4.5100    1.5570   -0.5400 hn        1 MOL      0.261921
    158 H68         3.9290    3.4520    1.7030 h1        1 MOL      0.106394
    159 H69         2.4220    2.3110    2.2940 hc        1 MOL     -0.046465
    160 H70         2.8630    0.8030    1.5250 hc        1 MOL     -0.046465
    161 H71         2.4230    1.8230   -0.7200 hc        1 MOL      0.079027
    162 H72         1.7710    3.2640    0.1680 hc        1 MOL      0.079027
    163 N14         5.5200    0.4750    2.3170 n         1 MOL      0.039778
    164 C55         6.4340   -0.2970    3.1620 c3        1 MOL     -0.183002
    165 H73         6.1740   -1.3540    3.1060 h1        1 MOL      0.070830
    166 H74         7.4580   -0.1560    2.8140 h1        1 MOL      0.070830
    167 H75         6.3500    0.0430    4.1940 h1        1 MOL      0.070830
    168 H76         5.3720    0.1870    1.3570 hn        1 MOL     -0.019206
    169 Ca1        -1.9610   -0.0300   -0.2320 Ca        1 MOL      1.689994
    170 O24        -1.5490   -0.1090    2.7440 oh        1 MOL     -0.838359
    171 H77        -0.6410    0.0560    2.4860 ho        1 MOL      0.412004
    172 H78        -1.6130    0.2440    3.6260 ho        1 MOL      0.412004
@<TRIPOS>BOND
     1    1    2 1   
     2    1    4 1   
     3    1    5 1   
     4    1    6 1   
     5    2    3 2   
     6    2    7 1   
     7    7    8 1   
     8    7   15 1   
     9    8    9 1   
    10    8   11 1   
    11    8   16 1   
    12    9   10 2   
    13    9   19 1   
    14   11   12 1   
    15   11   17 1   
    16   11   18 1   
    17   12   13 1   
    18   12   14 1   
    19   19   20 1   
    20   19   24 1   
    21   20   21 1   
    22   20   23 1   
    23   20   25 1   
    24   21   22 2   
    25   21   29 1   
    26   23   26 1   
    27   23   27 1   
    28   23   28 1   
    29   29   30 1   
    30   29   37 1   
    31   30   31 1   
    32   30   33 1   
    33   30   38 1   
    34   31   32 2   
    35   31   41 1   
    36   33   34 1   
    37   33   39 1   
    38   33   40 1   
    39   34   35 1   
    40   34   36 1   
    41   41   42 1   
    42   41   45 1   
    43   42   43 1   
    44   42   46 1   
    45   42   47 1   
    46   43   44 2   
    47   43   48 1   
    48   48   49 1   
    49   48   56 1   
    50   49   50 1   
    51   49   52 1   
    52   49   57 1   
    53   50   51 2   
    54   50   62 1   
    55   52   53 1   
    56   52   58 1   
    57   52   59 1   
    58   53   54 1   
    59   53   55 2   
    60   54   60 1   
    61   54   61 1   
    62   62   63 1   
    63   62   66 1   
    64   63   64 1   
    65   63   67 1   
    66   63   68 1   
    67   64   65 2   
    68   64   69 1   
    69   69   70 1   
    70   69   76 1   
    71   70   71 1   
    72   70   73 1   
    73   70   77 1   
    74   71   72 2   
    75   71   83 1   
    76   73   74 1   
    77   73   75 1   
    78   73   78 1   
    79   74   80 1   
    80   74   81 1   
    81   74   82 1   
    82   75   79 1   
    83   83   84 1   
    84   83   91 1   
    85   84   85 1   
    86   84   87 1   
    87   84   92 1   
    88   85   86 2   
    89   85  102 1   
    90   87   88 1   
    91   87   89 1   
    92   87   93 1   
    93   88   90 1   
    94   88   94 1   
    95   88   95 1   
    96   89   96 1   
    97   89   97 1   
    98   89   98 1   
    99   90   99 1   
   100   90  100 1   
   101   90  101 1   
   102  102  103 1   
   103  102  110 1   
   104  103  104 1   
   105  103  106 1   
   106  103  111 1   
   107  104  105 2   
   108  104  114 1   
   109  106  107 1   
   110  106  112 1   
   111  106  113 1   
   112  107  108 1   
   113  107  109 1   
   114  114  115 1   
   115  114  125 1   
   116  115  116 1   
   117  115  118 1   
   118  115  126 1   
   119  116  117 2   
   120  116  134 1   
   121  118  119 1   
   122  118  127 1   
   123  118  128 1   
   124  119  120 ar  
   125  119  121 ar  
   126  120  122 ar  
   127  120  129 1   
   128  121  123 ar  
   129  121  130 1   
   130  122  124 ar  
   131  122  131 1   
   132  123  124 ar  
   133  123  132 1   
   134  124  133 1   
   135  134  135 1   
   136  134  140 1   
   137  135  136 1   
   138  135  138 1   
   139  135  141 1   
   140  136  137 2   
   141  136  148 1   
   142  138  139 1   
   143  138  142 1   
   144  138  143 1   
   145  139  140 1   
   146  139  144 1   
   147  139  145 1   
   148  140  146 1   
   149  140  147 1   
   150  148  149 1   
   151  148  157 1   
   152  149  150 1   
   153  149  152 1   
   154  149  158 1   
   155  150  151 2   
   156  150  163 1   
   157  152  153 1   
   158  152  159 1   
   159  152  160 1   
   160  153  154 1   
   161  153  161 1   
   162  153  162 1   
   163  154  155 1   
   164  154  156 1   
   165  163  164 1   
   166  163  168 1   
   167  164  165 1   
   168  164  166 1   
   169  164  167 1   
   170  170  171 1   
   171  170  172 1   
@<TRIPOS>SUBSTRUCTURE
     1 MOL         1 TEMP              0 ****  ****    0 ROOT
