@<TRIPOS>MOLECULE
MOL
  175   173     1     0     0
SMALL
resp


@<TRIPOS>ATOM
      1 C1          0.6500    4.0430    5.4710 c3        1 MOL     -0.419472
      2 C2          0.1100    4.0990    4.0450 c         1 MOL      0.728160
      3 O1          0.8470    4.4370    3.1600 o         1 MOL     -0.553422
      4 H1          1.5980    3.5050    5.4790 hc        1 MOL      0.096012
      5 H2          0.8030    5.0560    5.8420 hc        1 MOL      0.096012
      6 H3         -0.0650    3.5260    6.1110 hc        1 MOL      0.096012
      7 N1         -1.1400    3.8270    3.8470 n         1 MOL     -0.561917
      8 C3         -1.9400    3.6550    2.6280 c3        1 MOL      0.019409
      9 C4         -2.0950    4.8890    1.6980 c         1 MOL      0.596017
     10 O2         -2.0930    6.0270    2.1920 o         1 MOL     -0.576247
     11 C5         -3.3590    3.1160    2.9070 c3        1 MOL     -0.117263
     12 C6         -4.1000    2.6250    1.6980 c         1 MOL      0.576805
     13 O3         -5.2910    2.3670    1.7080 o         1 MOL     -0.616978
     14 O4         -3.4660    2.0210    0.7040 o         1 MOL     -0.616978
     15 H4         -1.6100    3.6370    4.7180 hn        1 MOL      0.300650
     16 H5         -1.3570    2.8630    2.1480 h1        1 MOL      0.110649
     17 H6         -3.9450    3.8370    3.4660 hc        1 MOL      0.024891
     18 H7         -3.1940    2.3330    3.6360 hc        1 MOL      0.024891
     19 N2         -2.1510    4.6520    0.4200 n         1 MOL     -0.530268
     20 C7         -2.4610    5.5980   -0.6800 c3        1 MOL      0.229118
     21 C8         -3.3110    5.0040   -1.8600 c         1 MOL      0.513510
     22 O5         -3.5550    5.6390   -2.8750 o         1 MOL     -0.560728
     23 C9         -1.1280    6.1730   -1.1150 c3        1 MOL     -0.233532
     24 H8         -2.0600    3.7040    0.0920 hn        1 MOL      0.452722
     25 H9         -3.0610    6.4090   -0.2660 h1        1 MOL      0.013978
     26 H10        -0.5950    5.2330   -1.2610 hc        1 MOL      0.058155
     27 H11        -1.2640    6.8080   -1.9920 hc        1 MOL      0.058155
     28 H12        -0.6530    6.7210   -0.3050 hc        1 MOL      0.058155
     29 N3         -3.8730    3.7750   -1.7940 n         1 MOL     -0.518843
     30 C10        -4.5560    3.2140   -2.9630 c3        1 MOL      0.346127
     31 C11        -5.9960    2.6570   -2.5630 c         1 MOL      0.285155
     32 O6         -6.9420    2.8150   -3.3250 o         1 MOL     -0.541946
     33 C12        -3.6950    2.1920   -3.6250 c3        1 MOL     -0.190390
     34 C13        -3.1810    1.1520   -2.6890 c         1 MOL      0.678801
     35 O7         -3.9810    0.5750   -1.9000 o         1 MOL     -0.690165
     36 O8         -1.9790    0.8980   -2.6560 o         1 MOL     -0.690165
     37 H13        -3.5960    3.1700   -1.0220 hn        1 MOL      0.175906
     38 H14        -4.7330    3.9330   -3.7600 h1        1 MOL      0.025139
     39 H15        -2.8760    2.6770   -4.1570 hc        1 MOL      0.040194
     40 H16        -4.2920    1.7280   -4.4110 hc        1 MOL      0.040194
     41 N4         -6.1990    2.0940   -1.3660 n         1 MOL     -0.004638
     42 C14        -7.4250    1.3450   -0.9170 c3        1 MOL     -0.514657
     43 C15        -7.5810   -0.0910   -1.4010 c         1 MOL      0.672907
     44 O9         -8.6800   -0.6500   -1.5210 o         1 MOL     -0.626761
     45 H17        -5.3820    2.0070   -0.7850 hn        1 MOL      0.063195
     46 H18        -8.1840    1.9590   -1.4170 h1        1 MOL      0.183927
     47 H19        -7.3610    1.3190    0.1730 h1        1 MOL      0.183927
     48 N5         -6.4140   -0.7120   -1.4770 n         1 MOL     -0.246434
     49 C16        -6.2800   -2.1640   -1.8440 c3        1 MOL     -0.134542
     50 C17        -6.2120   -3.2250   -0.7140 c         1 MOL      0.451452
     51 O10        -6.0610   -4.4460   -1.0050 o         1 MOL     -0.501209
     52 C18        -5.2340   -2.5300   -2.9310 c3        1 MOL     -0.026728
     53 C19        -3.7410   -2.3730   -2.5710 c         1 MOL      0.438186
     54 N6         -2.9190   -2.0770   -3.5280 n         1 MOL     -0.604006
     55 O11        -3.4150   -2.3210   -1.3850 o         1 MOL     -0.287125
     56 H20        -5.5660   -0.1920   -1.2790 hn        1 MOL      0.213148
     57 H21        -7.2280   -2.3540   -2.3400 h1        1 MOL      0.120086
     58 H22        -5.3920   -1.9640   -3.8440 hc        1 MOL      0.025121
     59 H23        -5.3490   -3.5720   -3.1940 hc        1 MOL      0.025121
     60 H24        -3.0550   -2.3340   -4.5030 hn        1 MOL      0.314318
     61 H25        -1.9660   -1.8690   -3.2780 hn        1 MOL      0.314318
     62 N7         -6.3760   -2.7560    0.5210 n         1 MOL     -0.294720
     63 C20        -6.3730   -3.7550    1.6550 c3        1 MOL     -0.073847
     64 C21        -5.0080   -4.4790    1.8990 c         1 MOL      0.429785
     65 O12        -4.8380   -5.3910    2.7190 o         1 MOL     -0.580381
     66 H26        -6.5920   -1.8020    0.7690 hn        1 MOL      0.268936
     67 H27        -7.2020   -4.4510    1.5470 h1        1 MOL      0.076086
     68 H28        -6.6310   -3.1690    2.5380 h1        1 MOL      0.076086
     69 N8         -3.9200   -4.0690    1.2920 n         1 MOL     -0.013155
     70 C22        -2.5430   -4.6010    1.6250 c3        1 MOL     -0.119036
     71 C23        -1.5640   -3.4810    1.5790 c         1 MOL      0.443832
     72 O13        -1.7610   -2.5000    0.9130 o         1 MOL     -0.545332
     73 C24        -2.1460   -5.6110    0.5030 c3        1 MOL      0.495331
     74 C25        -3.0060   -6.9200    0.5940 c3        1 MOL     -0.681320
     75 O14        -2.3340   -5.1150   -0.8310 oh        1 MOL     -0.552916
     76 H29        -3.9980   -3.4210    0.5250 hn        1 MOL     -0.045931
     77 H30        -2.5210   -5.1440    2.5800 h1        1 MOL      0.099524
     78 H31        -1.0800   -5.7920    0.6590 h1        1 MOL     -0.041416
     79 H32        -1.9190   -4.2580   -0.9250 ho        1 MOL      0.313745
     80 H33        -3.0820   -7.2180    1.6430 hc        1 MOL      0.178834
     81 H34        -4.0210   -6.8700    0.2130 hc        1 MOL      0.178834
     82 H35        -2.5220   -7.6450   -0.0690 hc        1 MOL      0.178834
     83 N9         -0.3840   -3.6410    2.2180 n         1 MOL     -0.391853
     84 C26         0.7820   -2.7470    2.1280 c3        1 MOL     -0.081655
     85 C27         1.5840   -3.0450    0.8740 c         1 MOL      0.758503
     86 O15         2.0140   -4.1300    0.6320 o         1 MOL     -0.627258
     87 C28         1.5910   -2.7550    3.4680 c3        1 MOL      0.007484
     88 C29         0.8170   -2.1910    4.7660 c3        1 MOL      0.293629
     89 C30         2.8200   -1.8260    3.3710 c3        1 MOL     -0.116304
     90 C31         1.5810   -2.1910    6.1350 c3        1 MOL     -0.174648
     91 H36        -0.2820   -4.5980    2.5210 hn        1 MOL      0.239506
     92 H37         0.2980   -1.7990    1.9230 h1        1 MOL      0.086866
     93 H38         1.9190   -3.7810    3.6700 hc        1 MOL      0.021072
     94 H39        -0.0530   -2.8470    4.8840 hc        1 MOL     -0.096492
     95 H40         0.4230   -1.2120    4.5080 hc        1 MOL     -0.096492
     96 H41         3.5350   -2.1130    4.1490 hc        1 MOL      0.013073
     97 H42         3.3380   -1.9460    2.4150 hc        1 MOL      0.013073
     98 H43         2.6100   -0.7730    3.5090 hc        1 MOL      0.013073
     99 H44         0.9260   -1.8800    6.9530 hc        1 MOL      0.029389
    100 H45         1.9410   -3.2130    6.2240 hc        1 MOL      0.029389
    101 H46         2.4490   -1.5310    6.1020 hc        1 MOL      0.029389
    102 N10         1.8300   -2.0050    0.1110 n         1 MOL     -0.436495
    103 C32         2.6470   -1.8980   -1.0870 c3        1 MOL      0.075306
    104 C33         4.1320   -1.4360   -0.7830 c         1 MOL      0.480806
    105 O16         4.3750   -0.8970    0.2740 o         1 MOL     -0.278942
    106 C34         1.9190   -1.0720   -2.1040 c3        1 MOL     -0.080484
    107 C35         0.5230   -1.5510   -2.5410 c         1 MOL      0.595296
    108 O17        -0.4870   -1.3630   -1.7870 o         1 MOL     -0.647334
    109 O18         0.4500   -1.9690   -3.7380 o         1 MOL     -0.647334
    110 H47         1.2480   -1.2070    0.3040 hn        1 MOL      0.188052
    111 H48         2.7470   -2.9050   -1.4790 h1        1 MOL      0.056096
    112 H49         2.5820   -1.1290   -2.9660 hc        1 MOL      0.035528
    113 H50         1.9340   -0.0200   -1.8500 hc        1 MOL      0.035528
    114 N11         5.1050   -1.6770   -1.6720 n         1 MOL     -0.763529
    115 C36         6.5280   -1.4270   -1.5170 c3        1 MOL      0.651157
    116 C37         6.8230    0.0550   -1.2310 c         1 MOL      0.099467
    117 O19         7.6430    0.3190   -0.3030 o         1 MOL     -0.457594
    118 C38         7.4110   -2.0980   -2.5950 c3        1 MOL     -0.343568
    119 C39         8.8140   -1.9430   -2.3030 ca        1 MOL      0.270330
    120 C40         9.6950   -1.2920   -3.1060 ca        1 MOL     -0.241246
    121 C41         9.3670   -2.6180   -1.1670 ca        1 MOL     -0.241246
    122 C42        11.0740   -1.1230   -2.7820 ca        1 MOL     -0.096002
    123 C43        10.6870   -2.5040   -0.8500 ca        1 MOL     -0.096002
    124 C44        11.5510   -1.7690   -1.6340 ca        1 MOL     -0.102530
    125 H51         4.8910   -2.1190   -2.5580 hn        1 MOL      0.323500
    126 H52         6.7450   -1.9230   -0.5700 h1        1 MOL     -0.000662
    127 H53         7.2400   -1.6730   -3.5810 hc        1 MOL      0.074040
    128 H54         7.2730   -3.1810   -2.5750 hc        1 MOL      0.074040
    129 H55         9.3260   -0.8310   -4.0170 ha        1 MOL      0.123403
    130 H56         8.6930   -3.1800   -0.5370 ha        1 MOL      0.123403
    131 H57        11.7910   -0.5800   -3.3830 ha        1 MOL      0.110049
    132 H58        11.0470   -2.9550    0.0650 ha        1 MOL      0.110049
    133 H59        12.6120   -1.7210   -1.3960 ha        1 MOL      0.089656
    134 N12         6.0480    1.0280   -1.8310 n         1 MOL      0.067493
    135 C45         6.1940    2.4530   -1.5980 c3        1 MOL      0.162921
    136 C46         5.8360    2.7440   -0.0670 c         1 MOL      0.151726
    137 O20         6.4690    3.5520    0.6380 o         1 MOL     -0.472550
    138 C47         5.2100    3.1340   -2.5890 c3        1 MOL     -0.121545
    139 C48         5.3810    2.1710   -3.8430 c3        1 MOL     -0.106566
    140 C49         5.3470    0.8470   -3.0630 c3        1 MOL     -0.070215
    141 H60         7.2080    2.6960   -1.8910 h1        1 MOL      0.029040
    142 H61         4.1660    3.0220   -2.2730 hc        1 MOL      0.060133
    143 H62         5.6110    4.1310   -2.7690 hc        1 MOL      0.060133
    144 H63         4.5460    2.1210   -4.5330 hc        1 MOL      0.051200
    145 H64         6.3610    2.3260   -4.3120 hc        1 MOL      0.051200
    146 H65         4.2820    0.6450   -2.9180 h1        1 MOL      0.037772
    147 H66         5.8690    0.1530   -3.7260 h1        1 MOL      0.037772
    148 N13         4.7380    2.1200    0.3610 n         1 MOL      0.019367
    149 C50         4.0400    2.3250    1.6000 c3        1 MOL     -0.116721
    150 C51         4.8160    1.5390    2.7370 c         1 MOL      0.461557
    151 O21         4.9900    2.0820    3.8060 o         1 MOL     -0.569363
    152 C52         2.6860    1.7580    1.4680 c3        1 MOL     -0.008711
    153 C53         1.7600    2.3520    0.4140 c3        1 MOL     -0.127981
    154 C54         0.4220    1.6450    0.4350 c         1 MOL      0.683831
    155 O22         0.3310    0.4580    0.9200 o         1 MOL     -0.765243
    156 O23        -0.6380    2.1520   -0.0330 o         1 MOL     -0.765243
    157 H67         4.3630    1.4120   -0.2550 hn        1 MOL      0.075975
    158 H68         3.9500    3.3780    1.8580 h1        1 MOL      0.116137
    159 H69         2.2890    2.0610    2.4360 hc        1 MOL      0.049818
    160 H70         2.7600    0.6830    1.3880 hc        1 MOL      0.049818
    161 H71         2.2820    2.2110   -0.5340 hc        1 MOL      0.051149
    162 H72         1.5510    3.4160    0.4720 hc        1 MOL      0.051149
    163 N14         5.4570    0.4030    2.4710 n         1 MOL      0.033198
    164 C55         6.4260   -0.2640    3.3110 c3        1 MOL     -0.214737
    165 H73         6.7920   -1.1560    2.8030 h1        1 MOL      0.075686
    166 H74         7.2600    0.4080    3.5100 h1        1 MOL      0.075686
    167 H75         5.9560   -0.5490    4.2520 h1        1 MOL      0.075686
    168 H76         5.0850   -0.0510    1.6450 hn        1 MOL     -0.008904
    169 Ca1        -2.0590   -0.1040   -0.2290 Ca        1 MOL      1.708093
    170 O24        -4.5600   -0.4520    1.1350 oh        1 MOL     -0.774571
    171 H77        -4.5150    0.5080    1.0900 ho        1 MOL      0.387504
    172 H78        -4.9110   -0.6290    2.0010 ho        1 MOL      0.387504
    173 O25        -1.8380    0.1390    2.5600 oh        1 MOL     -0.774571
    174 H79        -2.0400    0.1610    3.5050 ho        1 MOL      0.387504
    175 H80        -0.9090    0.3670    2.5120 ho        1 MOL      0.387504
@<TRIPOS>BOND
     1    1    2 1   
     2    1    4 1   
     3    1    5 1   
     4    1    6 1   
     5    2    3 2   
     6    2    7 1   
     7    7    8 1   
     8    7   15 1   
     9    8    9 1   
    10    8   11 1   
    11    8   16 1   
    12    9   10 2   
    13    9   19 1   
    14   11   12 1   
    15   11   17 1   
    16   11   18 1   
    17   12   13 1   
    18   12   14 1   
    19   19   20 1   
    20   19   24 1   
    21   20   21 1   
    22   20   23 1   
    23   20   25 1   
    24   21   22 2   
    25   21   29 1   
    26   23   26 1   
    27   23   27 1   
    28   23   28 1   
    29   29   30 1   
    30   29   37 1   
    31   30   31 1   
    32   30   33 1   
    33   30   38 1   
    34   31   32 2   
    35   31   41 1   
    36   33   34 1   
    37   33   39 1   
    38   33   40 1   
    39   34   35 1   
    40   34   36 1   
    41   41   42 1   
    42   41   45 1   
    43   42   43 1   
    44   42   46 1   
    45   42   47 1   
    46   43   44 2   
    47   43   48 1   
    48   48   49 1   
    49   48   56 1   
    50   49   50 1   
    51   49   52 1   
    52   49   57 1   
    53   50   51 2   
    54   50   62 1   
    55   52   53 1   
    56   52   58 1   
    57   52   59 1   
    58   53   54 1   
    59   53   55 2   
    60   54   60 1   
    61   54   61 1   
    62   62   63 1   
    63   62   66 1   
    64   63   64 1   
    65   63   67 1   
    66   63   68 1   
    67   64   65 2   
    68   64   69 1   
    69   69   70 1   
    70   69   76 1   
    71   70   71 1   
    72   70   73 1   
    73   70   77 1   
    74   71   72 2   
    75   71   83 1   
    76   73   74 1   
    77   73   75 1   
    78   73   78 1   
    79   74   80 1   
    80   74   81 1   
    81   74   82 1   
    82   75   79 1   
    83   83   84 1   
    84   83   91 1   
    85   84   85 1   
    86   84   87 1   
    87   84   92 1   
    88   85   86 2   
    89   85  102 1   
    90   87   88 1   
    91   87   89 1   
    92   87   93 1   
    93   88   90 1   
    94   88   94 1   
    95   88   95 1   
    96   89   96 1   
    97   89   97 1   
    98   89   98 1   
    99   90   99 1   
   100   90  100 1   
   101   90  101 1   
   102  102  103 1   
   103  102  110 1   
   104  103  104 1   
   105  103  106 1   
   106  103  111 1   
   107  104  105 2   
   108  104  114 1   
   109  106  107 1   
   110  106  112 1   
   111  106  113 1   
   112  107  108 1   
   113  107  109 1   
   114  114  115 1   
   115  114  125 1   
   116  115  116 1   
   117  115  118 1   
   118  115  126 1   
   119  116  117 2   
   120  116  134 1   
   121  118  119 1   
   122  118  127 1   
   123  118  128 1   
   124  119  120 ar  
   125  119  121 ar  
   126  120  122 ar  
   127  120  129 1   
   128  121  123 ar  
   129  121  130 1   
   130  122  124 ar  
   131  122  131 1   
   132  123  124 ar  
   133  123  132 1   
   134  124  133 1   
   135  134  135 1   
   136  134  140 1   
   137  135  136 1   
   138  135  138 1   
   139  135  141 1   
   140  136  137 2   
   141  136  148 1   
   142  138  139 1   
   143  138  142 1   
   144  138  143 1   
   145  139  140 1   
   146  139  144 1   
   147  139  145 1   
   148  140  146 1   
   149  140  147 1   
   150  148  149 1   
   151  148  157 1   
   152  149  150 1   
   153  149  152 1   
   154  149  158 1   
   155  150  151 2   
   156  150  163 1   
   157  152  153 1   
   158  152  159 1   
   159  152  160 1   
   160  153  154 1   
   161  153  161 1   
   162  153  162 1   
   163  154  155 1   
   164  154  156 1   
   165  163  164 1   
   166  163  168 1   
   167  164  165 1   
   168  164  166 1   
   169  164  167 1   
   170  170  171 1   
   171  170  172 1   
   172  173  174 1   
   173  173  175 1   
@<TRIPOS>SUBSTRUCTURE
     1 MOL         1 TEMP              0 ****  ****    0 ROOT
