@<TRIPOS>MOLECULE
MOL
  179   176     1     0     0
SMALL
resp


@<TRIPOS>ATOM
      1 C1          3.0220    2.9650    4.0670 c3        1 MOL     -0.520018
      2 C2          2.1400    2.9250    2.8390 c         1 MOL      0.791379
      3 O1          2.7710    2.9650    1.7720 o         1 MOL     -0.609985
      4 H1          4.0100    3.3360    3.7920 hc        1 MOL      0.132651
      5 H2          2.5790    3.6270    4.8110 hc        1 MOL      0.132651
      6 H3          3.1140    1.9610    4.4820 hc        1 MOL      0.132651
      7 N1          0.7940    2.7790    3.0160 n         1 MOL     -0.807041
      8 C3         -0.2870    2.5700    1.9930 c3        1 MOL      0.485658
      9 C4         -0.6070    3.9310    1.4090 c         1 MOL      0.324741
     10 O2         -1.6960    4.5060    1.5420 o         1 MOL     -0.460949
     11 C5         -1.5250    1.8310    2.5720 c3        1 MOL     -0.223853
     12 C6         -2.6360    1.6690    1.4680 c         1 MOL      0.557885
     13 O3         -3.7650    1.3620    1.9230 o         1 MOL     -0.609922
     14 O4         -2.3080    1.4680    0.2950 o         1 MOL     -0.609922
     15 H4          0.4100    2.8940    3.9420 hn        1 MOL      0.357266
     16 H5          0.0660    1.9100    1.2030 h1        1 MOL     -0.001378
     17 H6         -1.8350    2.4630    3.3980 hc        1 MOL      0.044477
     18 H7         -1.2950    0.8450    2.9750 hc        1 MOL      0.044477
     19 N2          0.3610    4.5620    0.7350 n         1 MOL     -0.300525
     20 C7          0.2140    5.9410    0.1620 c3        1 MOL     -0.000704
     21 C8         -0.7570    6.0900   -1.0270 c         1 MOL      0.551528
     22 O5         -1.2070    7.1810   -1.2310 o         1 MOL     -0.560423
     23 C9          1.5820    6.4350   -0.1500 c3        1 MOL     -0.224691
     24 C10         2.4180    7.0190    0.9730 c3        1 MOL      0.261832
     25 C11         3.6570    7.8420    0.6020 c3        1 MOL     -0.074916
     26 C12         4.5060    7.9270    1.8640 c3        1 MOL     -0.100121
     27 N3          5.4250    6.7790    2.0420 n4        1 MOL     -0.584788
     28 H8          1.2370    4.0900    0.5930 hn        1 MOL      0.264433
     29 H9         -0.1820    6.5330    0.9860 h1        1 MOL      0.088056
     30 H10         1.5880    7.2630   -0.8710 hc        1 MOL      0.062843
     31 H11         2.0700    5.5830   -0.6250 hc        1 MOL      0.062843
     32 H12         2.6320    6.2290    1.6860 hc        1 MOL     -0.040307
     33 H13         1.8570    7.7710    1.5060 hc        1 MOL     -0.040307
     34 H14         3.2990    8.8150    0.2770 hc        1 MOL      0.058740
     35 H15         4.1530    7.3290   -0.2180 hc        1 MOL      0.058740
     36 H16         3.8520    8.3300    2.6480 hx        1 MOL      0.129390
     37 H17         5.0890    8.8300    1.6630 hx        1 MOL      0.129390
     38 H18         5.8290    6.4660    1.1740 hn        1 MOL      0.405240
     39 H19         6.1050    7.2480    2.6160 hn        1 MOL      0.405240
     40 H20         4.9950    5.9600    2.4640 hn        1 MOL      0.405240
     41 N4         -1.2650    5.0540   -1.6370 n         1 MOL     -0.279619
     42 C13        -2.3950    5.0070   -2.6290 c3        1 MOL      0.098988
     43 C14        -3.7700    4.8580   -2.0250 c         1 MOL      0.453209
     44 O6         -4.7750    5.4270   -2.4020 o         1 MOL     -0.538907
     45 C15        -2.1770    3.8400   -3.6460 c3        1 MOL     -0.391779
     46 C16        -1.9050    2.4680   -2.9720 c         1 MOL      0.688887
     47 O7         -2.8480    1.6980   -2.7910 o         1 MOL     -0.655009
     48 O8         -0.7950    2.1560   -2.4620 o         1 MOL     -0.655009
     49 H21        -0.9760    4.1220   -1.3550 hn        1 MOL      0.143969
     50 H22        -2.3460    5.9950   -3.1040 h1        1 MOL      0.080239
     51 H23        -1.3420    4.1340   -4.2900 hc        1 MOL      0.111488
     52 H24        -3.0970    3.8970   -4.2250 hc        1 MOL      0.111488
     53 N5         -3.7350    4.1380   -0.8550 n         1 MOL      0.038594
     54 C17        -4.8280    3.9630    0.1460 c3        1 MOL     -0.117374
     55 C18        -5.8630    2.8480   -0.1470 c         1 MOL      0.516280
     56 O9         -7.0340    2.8670    0.1690 o         1 MOL     -0.564645
     57 H25        -2.8150    3.7750   -0.6220 hn        1 MOL     -0.106864
     58 H26        -5.2970    4.9380    0.2540 h1        1 MOL      0.083217
     59 H27        -4.2660    3.8170    1.0610 h1        1 MOL      0.083217
     60 N6         -5.3790    1.9170   -0.9790 n         1 MOL     -0.202976
     61 C19        -6.3190    0.8080   -1.3950 c3        1 MOL     -0.049117
     62 C20        -6.6770   -0.1680   -0.2360 c         1 MOL      0.444909
     63 O10        -7.4390   -1.0390   -0.4280 o         1 MOL     -0.542126
     64 C21        -5.7820    0.1010   -2.7110 c3        1 MOL     -0.192671
     65 C22        -4.7960   -1.0880   -2.3650 c         1 MOL      0.533901
     66 N7         -4.9790   -2.2440   -3.0900 n         1 MOL     -0.735313
     67 O11        -4.0030   -1.0900   -1.4010 o         1 MOL     -0.519787
     68 H28        -4.3930    1.9010   -1.2300 hn        1 MOL      0.070700
     69 H29        -7.2760    1.2530   -1.6570 h1        1 MOL      0.121041
     70 H30        -5.1630    0.7890   -3.2870 hc        1 MOL      0.099258
     71 H31        -6.6450   -0.2430   -3.2740 hc        1 MOL      0.099258
     72 H32        -5.6150   -2.2950   -3.8790 hn        1 MOL      0.350303
     73 H33        -4.4670   -3.0590   -2.7860 hn        1 MOL      0.350303
     74 N8         -6.1000   -0.0120    0.9330 n         1 MOL     -0.132533
     75 C23        -6.4360   -0.8080    2.0770 c3        1 MOL     -0.121848
     76 C24        -5.3850   -1.8800    2.3060 c         1 MOL      0.456093
     77 O12        -5.5850   -2.8900    2.9740 o         1 MOL     -0.546969
     78 H34        -5.4080    0.7190    0.9850 hn        1 MOL      0.197655
     79 H35        -7.4650   -1.1740    2.0710 h1        1 MOL      0.100172
     80 H36        -6.4040   -0.1450    2.9470 h1        1 MOL      0.100172
     81 N9         -4.1930   -1.8250    1.6370 n         1 MOL     -0.202067
     82 C25        -3.1230   -2.8590    1.6170 c3        1 MOL      0.025321
     83 C26        -1.6690   -2.2310    1.4700 c         1 MOL      0.379185
     84 O13        -1.5490   -1.2100    0.7970 o         1 MOL     -0.460387
     85 C27        -3.1830   -3.8910    0.4670 c3        1 MOL      0.437847
     86 C28        -4.3620   -4.8000    0.4090 ca        1 MOL     -0.241230
     87 C29        -4.3150   -6.1370    0.8810 ca        1 MOL     -0.053585
     88 C30        -5.6240   -4.2970   -0.0520 ca        1 MOL     -0.053585
     89 C31        -5.5010   -6.8770    0.9540 ca        1 MOL     -0.300222
     90 C32        -6.7850   -5.0490   -0.0140 ca        1 MOL     -0.300222
     91 C33        -6.7470   -6.2790    0.6260 ca        1 MOL      0.418834
     92 O14        -7.9030   -7.0340    0.6970 oh        1 MOL     -0.552052
     93 H37        -4.0240   -0.8930    1.2580 hn        1 MOL      0.152412
     94 H38        -3.1820   -3.4390    2.5450 h1        1 MOL      0.036566
     95 H39        -2.3640   -4.6070    0.6040 hc        1 MOL     -0.116008
     96 H40        -2.9670   -3.4260   -0.4890 hc        1 MOL     -0.116008
     97 H41        -3.3760   -6.5290    1.2190 ha        1 MOL      0.107964
     98 H42        -5.7270   -3.3170   -0.4860 ha        1 MOL      0.107964
     99 H43        -5.5500   -7.8280    1.4510 ha        1 MOL      0.152670
    100 H44        -7.7020   -4.6060   -0.3840 ha        1 MOL      0.152670
    101 H45        -8.6380   -6.4210    0.6550 ho        1 MOL      0.387663
    102 N10        -0.7130   -2.9530    2.0810 n         1 MOL     -0.378023
    103 C34         0.7440   -2.7250    1.9620 c3        1 MOL      0.003501
    104 C35         1.4390   -3.8000    1.1820 c         1 MOL      0.347595
    105 O15         1.3940   -5.0360    1.5480 o         1 MOL     -0.530401
    106 C36         1.4000   -2.4360    3.3370 c3        1 MOL      0.211304
    107 C37         0.5760   -1.4170    4.2280 c3        1 MOL      0.301869
    108 C38         2.8420   -1.8110    2.9690 c3        1 MOL     -0.343382
    109 C39         1.0700   -1.4830    5.6660 c3        1 MOL     -0.429348
    110 H46        -0.9620   -3.6770    2.7360 hn        1 MOL      0.262600
    111 H47         0.8310   -1.7930    1.4130 h1        1 MOL      0.059785
    112 H48         1.5740   -3.3350    3.9270 hc        1 MOL     -0.011998
    113 H49        -0.4630   -1.7450    4.2410 hc        1 MOL     -0.036633
    114 H50         0.5640   -0.4030    3.8190 hc        1 MOL     -0.036633
    115 H51         3.4070   -1.6330    3.8880 hc        1 MOL      0.058790
    116 H52         3.5080   -2.4040    2.3450 hc        1 MOL      0.058790
    117 H53         2.6790   -0.8610    2.4600 hc        1 MOL      0.058790
    118 H54         2.1450   -1.2830    5.6620 hc        1 MOL      0.093473
    119 H55         0.6100   -0.6540    6.1940 hc        1 MOL      0.093473
    120 H56         0.8220   -2.4450    6.1240 hc        1 MOL      0.093473
    121 N11         2.2570   -3.4530    0.1630 n         1 MOL     -0.022541
    122 C40         3.1870   -4.2290   -0.6100 c3        1 MOL     -0.043291
    123 C41         4.6660   -3.8460   -0.2660 c         1 MOL      0.395371
    124 O16         4.9570   -2.8840    0.3730 o         1 MOL     -0.310613
    125 C42         2.9270   -4.2080   -2.1250 c3        1 MOL     -0.114065
    126 O17         3.4610   -3.0450   -2.6890 oh        1 MOL     -0.496833
    127 H57         2.3130   -2.4650   -0.0170 hn        1 MOL      0.172118
    128 H58         3.0120   -5.2350   -0.2430 h1        1 MOL      0.052601
    129 H59         1.8870   -4.4000   -2.3600 h1        1 MOL      0.100648
    130 H60         3.4100   -5.0540   -2.6240 h1        1 MOL      0.100648
    131 H61         2.9010   -2.6240   -3.3440 ho        1 MOL      0.397233
    132 N12         5.5670   -4.7310   -0.6670 n         1 MOL     -0.324115
    133 C43         7.0150   -4.5680   -0.5500 c3        1 MOL      0.020398
    134 C44         7.5980   -3.3140   -1.2160 c         1 MOL      0.576157
    135 O18         8.5560   -2.6990   -0.6810 o         1 MOL     -0.554538
    136 C45         7.7180   -5.8480   -1.1050 c3        1 MOL     -0.355224
    137 H62         5.3680   -5.6030   -1.1390 hn        1 MOL      0.269315
    138 H63         7.1640   -4.4650    0.5250 h1        1 MOL      0.092396
    139 H64         7.7690   -5.9000   -2.1840 hc        1 MOL      0.116696
    140 H65         8.7760   -5.7960   -0.8810 hc        1 MOL      0.116696
    141 H66         7.2400   -6.7320   -0.6830 hc        1 MOL      0.116696
    142 N13         7.0360   -2.9170   -2.3780 n         1 MOL     -0.439354
    143 C46         7.4580   -1.6210   -2.9760 c3        1 MOL      0.104787
    144 C47         6.9220   -0.4700   -2.1290 c         1 MOL      0.309484
    145 O19         7.3550    0.6610   -2.3860 o         1 MOL     -0.533757
    146 C48         6.8740   -1.5250   -4.3520 c3        1 MOL     -0.212568
    147 H67         6.2960   -3.4380   -2.8220 hn        1 MOL      0.246468
    148 H68         8.5370   -1.5750   -3.0930 h1        1 MOL      0.108228
    149 H69         7.2120   -0.5730   -4.7520 hc        1 MOL      0.067991
    150 H70         7.3060   -2.2380   -5.0530 hc        1 MOL      0.067991
    151 H71         5.7800   -1.5140   -4.3470 hc        1 MOL      0.067991
    152 N14         6.0280   -0.7000   -1.1870 n         1 MOL      0.105594
    153 C49         5.4630    0.4110   -0.3130 c3        1 MOL     -0.241109
    154 C50         6.1460    0.3690    1.1690 c         1 MOL      0.476217
    155 O20         6.2850    1.4030    1.8380 o         1 MOL     -0.541257
    156 C51         3.9090    0.2650   -0.1780 c3        1 MOL      0.155448
    157 C52         3.1740    0.1640   -1.5130 c3        1 MOL     -0.061149
    158 C53         1.6620    0.0990   -1.4470 c         1 MOL      0.713202
    159 O21         0.9750   -0.0200   -2.4970 o         1 MOL     -0.772068
    160 O22         1.0220    0.2450   -0.3910 o         1 MOL     -0.772068
    161 H72         5.7630   -1.6260   -0.8880 hn        1 MOL     -0.009492
    162 H73         5.6300    1.3980   -0.7600 h1        1 MOL      0.127137
    163 H74         3.4360    1.0780    0.3620 hc        1 MOL      0.029707
    164 H75         3.7240   -0.6690    0.3450 hc        1 MOL      0.029707
    165 H76         3.4600   -0.7200   -2.0740 hc        1 MOL     -0.014632
    166 H77         3.4470    1.0500   -2.0940 hc        1 MOL     -0.014632
    167 N15         6.6760   -0.8230    1.6020 n         1 MOL     -0.132433
    168 C54         7.6150   -0.8350    2.6540 c3        1 MOL     -0.386034
    169 H78         8.5700   -0.4540    2.2920 h1        1 MOL      0.134581
    170 H79         7.2580   -0.2050    3.4680 h1        1 MOL      0.134581
    171 H80         7.7440   -1.8560    3.0140 h1        1 MOL      0.134581
    172 H81         6.4280   -1.6760    1.1280 hn        1 MOL      0.157778
    173 Ca1        -1.4260   -0.0970   -1.4850 Ca        1 MOL      1.782070
    174 O23        -0.8540   -2.7710   -1.7370 oh        1 MOL     -0.879467
    175 H82        -0.4450   -3.6250   -1.8980 ho        1 MOL      0.422785
    176 H83        -1.7120   -2.8330   -2.1680 ho        1 MOL      0.422785
    177 O24        -1.9130   -1.2500   -3.8230 oh        1 MOL     -0.879467
    178 H84        -1.3390   -0.8600   -4.4920 ho        1 MOL      0.422785
    179 H85        -2.4150   -1.9110   -4.3060 ho        1 MOL      0.422785
@<TRIPOS>BOND
     1    1    2 1   
     2    1    4 1   
     3    1    5 1   
     4    1    6 1   
     5    2    3 2   
     6    2    7 1   
     7    7    8 1   
     8    7   15 1   
     9    8    9 1   
    10    8   11 1   
    11    8   16 1   
    12    9   10 2   
    13    9   19 1   
    14   11   12 1   
    15   11   17 1   
    16   11   18 1   
    17   12   13 1   
    18   12   14 1   
    19   19   20 1   
    20   19   28 1   
    21   20   21 1   
    22   20   23 1   
    23   20   29 1   
    24   21   22 2   
    25   21   41 1   
    26   23   24 1   
    27   23   30 1   
    28   23   31 1   
    29   24   25 1   
    30   24   32 1   
    31   24   33 1   
    32   25   26 1   
    33   25   34 1   
    34   25   35 1   
    35   26   27 1   
    36   26   36 1   
    37   26   37 1   
    38   27   38 1   
    39   27   39 1   
    40   27   40 1   
    41   41   42 1   
    42   41   49 1   
    43   42   43 1   
    44   42   45 1   
    45   42   50 1   
    46   43   44 2   
    47   43   53 1   
    48   45   46 1   
    49   45   51 1   
    50   45   52 1   
    51   46   47 1   
    52   46   48 1   
    53   53   54 1   
    54   53   57 1   
    55   54   55 1   
    56   54   58 1   
    57   54   59 1   
    58   55   56 2   
    59   55   60 1   
    60   60   61 1   
    61   60   68 1   
    62   61   62 1   
    63   61   64 1   
    64   61   69 1   
    65   62   63 2   
    66   62   74 1   
    67   64   65 1   
    68   64   70 1   
    69   64   71 1   
    70   65   66 1   
    71   65   67 2   
    72   66   72 1   
    73   66   73 1   
    74   74   75 1   
    75   74   78 1   
    76   75   76 1   
    77   75   79 1   
    78   75   80 1   
    79   76   77 2   
    80   76   81 1   
    81   81   82 1   
    82   81   93 1   
    83   82   83 1   
    84   82   85 1   
    85   82   94 1   
    86   83   84 2   
    87   83  102 1   
    88   85   86 1   
    89   85   95 1   
    90   85   96 1   
    91   86   87 ar  
    92   86   88 ar  
    93   87   89 ar  
    94   87   97 1   
    95   88   90 ar  
    96   88   98 1   
    97   89   91 ar  
    98   89   99 1   
    99   90   91 ar  
   100   90  100 1   
   101   91   92 1   
   102   92  101 1   
   103  102  103 1   
   104  102  110 1   
   105  103  104 1   
   106  103  106 1   
   107  103  111 1   
   108  104  105 2   
   109  104  121 1   
   110  106  107 1   
   111  106  108 1   
   112  106  112 1   
   113  107  109 1   
   114  107  113 1   
   115  107  114 1   
   116  108  115 1   
   117  108  116 1   
   118  108  117 1   
   119  109  118 1   
   120  109  119 1   
   121  109  120 1   
   122  121  122 1   
   123  121  127 1   
   124  122  123 1   
   125  122  125 1   
   126  122  128 1   
   127  123  124 2   
   128  123  132 1   
   129  125  126 1   
   130  125  129 1   
   131  125  130 1   
   132  126  131 1   
   133  132  133 1   
   134  132  137 1   
   135  133  134 1   
   136  133  136 1   
   137  133  138 1   
   138  134  135 2   
   139  134  142 1   
   140  136  139 1   
   141  136  140 1   
   142  136  141 1   
   143  142  143 1   
   144  142  147 1   
   145  143  144 1   
   146  143  146 1   
   147  143  148 1   
   148  144  145 2   
   149  144  152 1   
   150  146  149 1   
   151  146  150 1   
   152  146  151 1   
   153  152  153 1   
   154  152  161 1   
   155  153  154 1   
   156  153  156 1   
   157  153  162 1   
   158  154  155 2   
   159  154  167 1   
   160  156  157 1   
   161  156  163 1   
   162  156  164 1   
   163  157  158 1   
   164  157  165 1   
   165  157  166 1   
   166  158  159 1   
   167  158  160 1   
   168  167  168 1   
   169  167  172 1   
   170  168  169 1   
   171  168  170 1   
   172  168  171 1   
   173  174  175 1   
   174  174  176 1   
   175  177  178 1   
   176  177  179 1   
@<TRIPOS>SUBSTRUCTURE
     1 MOL         1 TEMP              0 ****  ****    0 ROOT
