@<TRIPOS>MOLECULE
MOL
  175   173     1     0     0
SMALL
resp


@<TRIPOS>ATOM
      1 C1          0.6920    3.9210    5.4590 c3        1 MOL     -0.329909
      2 C2          0.1030    3.8740    4.0520 c         1 MOL      0.724696
      3 O1          0.8710    4.0370    3.0750 o         1 MOL     -0.542961
      4 H1          0.1720    3.2020    6.0940 hc        1 MOL      0.075842
      5 H2          1.7520    3.6690    5.4190 hc        1 MOL      0.075842
      6 H3          0.5710    4.9220    5.8710 hc        1 MOL      0.075842
      7 N1         -1.2230    3.7590    3.9530 n         1 MOL     -0.676990
      8 C3         -1.9650    3.5610    2.7310 c3        1 MOL      0.271223
      9 C4         -2.0410    4.7030    1.7370 c         1 MOL      0.634084
     10 O2         -2.0390    5.8450    2.2030 o         1 MOL     -0.578673
     11 C5         -3.4330    3.0730    3.0760 c3        1 MOL     -0.332424
     12 C6         -4.0420    2.3070    1.9360 c         1 MOL      0.995263
     13 O3         -5.0520    1.6610    2.2160 o         1 MOL     -0.753569
     14 O4         -3.4530    2.2170    0.8180 o         1 MOL     -0.753569
     15 H4         -1.7980    3.6550    4.7780 hn        1 MOL      0.341566
     16 H5         -1.4270    2.7770    2.1920 h1        1 MOL      0.016425
     17 H6         -4.0250    3.9680    3.2720 hc        1 MOL      0.041813
     18 H7         -3.3110    2.3900    3.9180 hc        1 MOL      0.041813
     19 N2         -2.1950    4.3670    0.4440 n         1 MOL     -0.769781
     20 C7         -2.2330    5.4680   -0.5930 c3        1 MOL      0.328995
     21 C8         -3.2080    5.0760   -1.7130 c         1 MOL      0.302265
     22 O5         -3.3850    5.8710   -2.7050 o         1 MOL     -0.578811
     23 C9         -0.7850    5.7350   -1.0890 c3        1 MOL     -0.296102
     24 H8         -1.9680    3.4410    0.1210 hn        1 MOL      0.483474
     25 H9         -2.4690    6.4100   -0.0920 h1        1 MOL      0.031346
     26 H10        -0.0610    5.6980   -0.2750 hc        1 MOL      0.084065
     27 H11        -0.5350    4.8570   -1.7030 hc        1 MOL      0.084065
     28 H12        -0.7270    6.7060   -1.5890 hc        1 MOL      0.084065
     29 N3         -3.8750    3.9660   -1.6310 n         1 MOL     -0.132418
     30 C10        -4.9390    3.5670   -2.5800 c3        1 MOL      0.000492
     31 C11        -6.1600    2.7700   -2.0550 c         1 MOL      0.320802
     32 O6         -7.1440    2.4910   -2.7840 o         1 MOL     -0.539141
     33 C12        -4.3040    2.5510   -3.5710 c3        1 MOL     -0.141935
     34 C13        -3.7000    1.2420   -3.1310 c         1 MOL      0.724728
     35 O7         -3.7940    0.7920   -1.9650 o         1 MOL     -0.674384
     36 O8         -3.0070    0.6820   -3.9880 o         1 MOL     -0.674384
     37 H13        -3.5850    3.3610   -0.8810 hn        1 MOL      0.145089
     38 H14        -5.3960    4.4080   -3.1060 h1        1 MOL      0.106081
     39 H15        -3.4730    3.1080   -3.9860 hc        1 MOL      0.042593
     40 H16        -5.0230    2.4310   -4.3860 hc        1 MOL      0.042593
     41 N4         -6.1920    2.2430   -0.8380 n         1 MOL     -0.092249
     42 C14        -7.2940    1.5040   -0.1500 c3        1 MOL     -0.266426
     43 C15        -7.3590    0.0250   -0.6100 c         1 MOL      0.505455
     44 O9         -8.3640   -0.6770   -0.3990 o         1 MOL     -0.607507
     45 H17        -5.4380    2.5800   -0.2640 hn        1 MOL      0.081563
     46 H18        -8.2120    2.0430   -0.3940 h1        1 MOL      0.136080
     47 H19        -7.2380    1.5740    0.9320 h1        1 MOL      0.136080
     48 N5         -6.3060   -0.4900   -1.2690 n         1 MOL     -0.170245
     49 C16        -6.3690   -1.8850   -1.7730 c3        1 MOL      0.004853
     50 C17        -6.3480   -3.0560   -0.7590 c         1 MOL      0.416986
     51 O10        -6.6320   -4.2160   -1.1480 o         1 MOL     -0.557186
     52 C18        -5.4510   -2.0660   -2.9210 c3        1 MOL     -0.034171
     53 C19        -3.9900   -2.0640   -2.5210 c         1 MOL      0.372387
     54 N6         -3.0900   -2.2490   -3.4510 n         1 MOL     -0.640135
     55 O11        -3.6460   -1.9000   -1.3640 o         1 MOL     -0.250166
     56 H20        -5.4720    0.0110   -1.5580 hn        1 MOL      0.122415
     57 H21        -7.3410   -1.9630   -2.2500 h1        1 MOL      0.081446
     58 H22        -5.6320   -1.2980   -3.6770 hc        1 MOL      0.032662
     59 H23        -5.8010   -2.9620   -3.4260 hc        1 MOL      0.032662
     60 H24        -3.3710   -2.3200   -4.4150 hn        1 MOL      0.341927
     61 H25        -2.1050   -2.0850   -3.2900 hn        1 MOL      0.341927
     62 N7         -6.1970   -2.7480    0.5140 n         1 MOL     -0.100725
     63 C20        -6.1800   -3.7010    1.6260 c3        1 MOL     -0.390568
     64 C21        -4.8140   -4.4380    1.7660 c         1 MOL      0.530621
     65 O12        -4.6740   -5.2660    2.7020 o         1 MOL     -0.583126
     66 H26        -6.0500   -1.7930    0.8110 hn        1 MOL      0.214461
     67 H27        -6.9040   -4.5050    1.4720 h1        1 MOL      0.153725
     68 H28        -6.3290   -3.2110    2.5880 h1        1 MOL      0.153725
     69 N8         -3.8280   -4.0480    0.9500 n         1 MOL     -0.098881
     70 C22        -2.4450   -4.6400    0.9580 c3        1 MOL     -0.158485
     71 C23        -1.4610   -3.5750    1.3210 c         1 MOL      0.529358
     72 O13        -1.6590   -2.4010    1.0040 o         1 MOL     -0.554740
     73 C24        -2.1030   -5.5290   -0.2890 c3        1 MOL      0.645158
     74 C25        -3.0220   -6.6970   -0.5670 c3        1 MOL     -0.524336
     75 O14        -2.1480   -4.6980   -1.4170 oh        1 MOL     -0.613121
     76 H29        -4.0290   -3.3470    0.2530 hn        1 MOL      0.031881
     77 H30        -2.4120   -5.3130    1.8160 h1        1 MOL      0.033194
     78 H31        -1.1220   -5.9780   -0.1450 h1        1 MOL     -0.072942
     79 H32        -1.8460   -3.8270   -1.1180 ho        1 MOL      0.315926
     80 H33        -3.2900   -7.2630    0.3300 hc        1 MOL      0.124789
     81 H34        -3.9650   -6.3240   -0.9540 hc        1 MOL      0.124789
     82 H35        -2.6040   -7.3290   -1.3530 hc        1 MOL      0.124789
     83 N9         -0.3380   -3.9450    1.9740 n         1 MOL     -0.461383
     84 C26         0.8540   -3.0440    1.9590 c3        1 MOL     -0.009337
     85 C27         1.4900   -3.1240    0.6060 c         1 MOL      0.375569
     86 O15         1.4990   -4.2380    0.0190 o         1 MOL     -0.569083
     87 C28         1.8890   -3.1330    3.1510 c3        1 MOL      0.077603
     88 C29         0.9810   -3.3010    4.4130 c3        1 MOL      0.221580
     89 C30         2.6720   -1.8680    3.2600 c3        1 MOL     -0.195176
     90 C31         1.9070   -3.7800    5.5950 c3        1 MOL     -0.265541
     91 H36        -0.1870   -4.9330    2.1240 hn        1 MOL      0.287677
     92 H37         0.4000   -2.0500    2.0460 h1        1 MOL      0.117036
     93 H38         2.6000   -3.9470    2.9770 hc        1 MOL      0.016982
     94 H39         0.1960   -4.0260    4.2080 hc        1 MOL     -0.053789
     95 H40         0.4030   -2.3870    4.5240 hc        1 MOL     -0.053789
     96 H41         1.9650   -1.0380    3.2340 hc        1 MOL      0.025922
     97 H42         3.2680   -1.7790    4.1700 hc        1 MOL      0.025922
     98 H43         3.2860   -1.7100    2.3730 hc        1 MOL      0.025922
     99 H44         1.3300   -3.7380    6.5190 hc        1 MOL      0.051228
    100 H45         2.2030   -4.7910    5.3260 hc        1 MOL      0.051228
    101 H46         2.8530   -3.2370    5.6060 hc        1 MOL      0.051228
    102 N10         1.7720   -1.9900    0.0180 n         1 MOL     -0.179649
    103 C32         2.6080   -1.8660   -1.2500 c3        1 MOL     -0.024336
    104 C33         4.0410   -1.3510   -0.9210 c         1 MOL      0.492837
    105 O16         4.2020   -0.6680    0.0280 o         1 MOL     -0.367261
    106 C34         1.8840   -0.9660   -2.2940 c3        1 MOL     -0.308593
    107 C35         0.3120   -1.2720   -2.3860 c         1 MOL      0.747978
    108 O17         0.0080   -1.8420   -3.4570 o         1 MOL     -0.668113
    109 O18        -0.5720   -0.7910   -1.6460 o         1 MOL     -0.668113
    110 H47         1.6610   -1.0860    0.4620 hn        1 MOL      0.348484
    111 H48         2.7270   -2.8370   -1.7260 h1        1 MOL      0.086828
    112 H49         2.2600   -1.1500   -3.2920 hc        1 MOL      0.083582
    113 H50         2.0330    0.1020   -2.1700 hc        1 MOL      0.083582
    114 N11         5.0680   -1.7550   -1.6370 n         1 MOL     -0.739678
    115 C36         6.4690   -1.5330   -1.2730 c3        1 MOL      0.610808
    116 C37         6.7320   -0.0080   -1.0980 c         1 MOL      0.202335
    117 O19         7.3650    0.4110   -0.0920 o         1 MOL     -0.493380
    118 C38         7.4750   -2.1670   -2.2510 c3        1 MOL     -0.503507
    119 C39         8.8860   -2.0120   -1.7970 ca        1 MOL      0.179459
    120 C40         9.8820   -1.5700   -2.6820 ca        1 MOL     -0.160559
    121 C41         9.3210   -2.2810   -0.4640 ca        1 MOL     -0.160559
    122 C42        11.2550   -1.4570   -2.2720 ca        1 MOL     -0.129513
    123 C43        10.6870   -2.2180   -0.1170 ca        1 MOL     -0.129513
    124 C44        11.6540   -1.7730   -0.9960 ca        1 MOL     -0.097872
    125 H51         4.9590   -2.2620   -2.5060 hn        1 MOL      0.338525
    126 H52         6.5980   -1.9870   -0.3000 h1        1 MOL      0.016380
    127 H53         7.3720   -1.6690   -3.2120 hc        1 MOL      0.137905
    128 H54         7.2170   -3.2250   -2.3130 hc        1 MOL      0.137905
    129 H55         9.6080   -1.3350   -3.6950 ha        1 MOL      0.109624
    130 H56         8.5860   -2.4120    0.3230 ha        1 MOL      0.109624
    131 H57        11.9800   -1.2220   -3.0350 ha        1 MOL      0.108644
    132 H58        10.9830   -2.2750    0.9190 ha        1 MOL      0.108644
    133 H59        12.6400   -1.6800   -0.5800 ha        1 MOL      0.108877
    134 N12         6.2280    0.9350   -1.9400 n         1 MOL      0.035974
    135 C45         6.4800    2.3540   -1.7190 c3        1 MOL     -0.060476
    136 C46         5.7600    3.0270   -0.4950 c         1 MOL      0.364826
    137 O20         5.9670    4.1880   -0.1330 o         1 MOL     -0.494172
    138 C47         5.9500    3.0260   -2.9670 c3        1 MOL     -0.073600
    139 C48         6.1520    2.0090   -4.1000 c3        1 MOL      0.026422
    140 C49         5.7820    0.7070   -3.3100 c3        1 MOL     -0.096889
    141 H60         7.5370    2.5850   -1.6310 h1        1 MOL      0.084643
    142 H61         4.8780    3.2340   -2.9010 hc        1 MOL      0.048763
    143 H62         6.4040    3.9880   -3.2060 hc        1 MOL      0.048763
    144 H63         5.4910    2.1490   -4.9510 hc        1 MOL      0.015024
    145 H64         7.1670    1.9520   -4.4820 hc        1 MOL      0.015024
    146 H65         4.7000    0.6790   -3.2560 h1        1 MOL      0.047015
    147 H66         6.2720   -0.1560   -3.7620 h1        1 MOL      0.047015
    148 N13         4.7810    2.2680    0.1120 n         1 MOL     -0.167987
    149 C50         4.1570    2.5010    1.4530 c3        1 MOL     -0.090208
    150 C51         5.0160    1.9230    2.5600 c         1 MOL      0.567326
    151 O21         5.3590    2.5920    3.4810 o         1 MOL     -0.558917
    152 C52         2.7230    1.8640    1.5010 c3        1 MOL      0.192347
    153 C53         1.7250    2.3320    0.4140 c3        1 MOL     -0.110915
    154 C54         0.4290    1.5200    0.3650 c         1 MOL      0.615516
    155 O22        -0.5550    1.9020   -0.2670 o         1 MOL     -0.724440
    156 O23         0.2710    0.4840    1.0290 o         1 MOL     -0.724440
    157 H67         4.4850    1.3780   -0.2720 hn        1 MOL      0.154567
    158 H68         4.1460    3.5590    1.7000 h1        1 MOL      0.089928
    159 H69         2.2950    2.1400    2.4580 hc        1 MOL     -0.064931
    160 H70         2.8630    0.7890    1.5180 hc        1 MOL     -0.064931
    161 H71         2.3000    2.1460   -0.5010 hc        1 MOL      0.030664
    162 H72         1.6080    3.4160    0.4630 hc        1 MOL      0.030664
    163 N14         5.4380    0.6410    2.4590 n         1 MOL     -0.221986
    164 C55         6.2660    0.0170    3.5020 c3        1 MOL     -0.217734
    165 H73         5.6710   -0.7180    4.0450 h1        1 MOL      0.087530
    166 H74         7.1210   -0.4770    3.0400 h1        1 MOL      0.087530
    167 H75         6.6170    0.7820    4.1940 h1        1 MOL      0.087530
    168 H76         5.1560    0.0310    1.6990 hn        1 MOL      0.166140
    169 Ca1        -2.3660   -0.0320   -0.0430 Ca        1 MOL      1.599577
    170 O24        -4.3970   -0.8430    1.6170 oh        1 MOL     -0.830776
    171 H77        -4.7250    0.0280    1.8390 ho        1 MOL      0.403838
    172 H78        -4.2450   -1.2730    2.4650 ho        1 MOL      0.403838
    173 O25        -1.7810    0.1880    2.6080 oh        1 MOL     -0.830776
    174 H79        -1.7710    0.0180    3.5550 ho        1 MOL      0.403838
    175 H80        -0.8700    0.4220    2.4060 ho        1 MOL      0.403838
@<TRIPOS>BOND
     1    1    2 1   
     2    1    4 1   
     3    1    5 1   
     4    1    6 1   
     5    2    3 2   
     6    2    7 1   
     7    7    8 1   
     8    7   15 1   
     9    8    9 1   
    10    8   11 1   
    11    8   16 1   
    12    9   10 2   
    13    9   19 1   
    14   11   12 1   
    15   11   17 1   
    16   11   18 1   
    17   12   13 1   
    18   12   14 1   
    19   19   20 1   
    20   19   24 1   
    21   20   21 1   
    22   20   23 1   
    23   20   25 1   
    24   21   22 2   
    25   21   29 1   
    26   23   26 1   
    27   23   27 1   
    28   23   28 1   
    29   29   30 1   
    30   29   37 1   
    31   30   31 1   
    32   30   33 1   
    33   30   38 1   
    34   31   32 2   
    35   31   41 1   
    36   33   34 1   
    37   33   39 1   
    38   33   40 1   
    39   34   35 1   
    40   34   36 1   
    41   41   42 1   
    42   41   45 1   
    43   42   43 1   
    44   42   46 1   
    45   42   47 1   
    46   43   44 2   
    47   43   48 1   
    48   48   49 1   
    49   48   56 1   
    50   49   50 1   
    51   49   52 1   
    52   49   57 1   
    53   50   51 2   
    54   50   62 1   
    55   52   53 1   
    56   52   58 1   
    57   52   59 1   
    58   53   54 1   
    59   53   55 2   
    60   54   60 1   
    61   54   61 1   
    62   62   63 1   
    63   62   66 1   
    64   63   64 1   
    65   63   67 1   
    66   63   68 1   
    67   64   65 2   
    68   64   69 1   
    69   69   70 1   
    70   69   76 1   
    71   70   71 1   
    72   70   73 1   
    73   70   77 1   
    74   71   72 2   
    75   71   83 1   
    76   73   74 1   
    77   73   75 1   
    78   73   78 1   
    79   74   80 1   
    80   74   81 1   
    81   74   82 1   
    82   75   79 1   
    83   83   84 1   
    84   83   91 1   
    85   84   85 1   
    86   84   87 1   
    87   84   92 1   
    88   85   86 2   
    89   85  102 1   
    90   87   88 1   
    91   87   89 1   
    92   87   93 1   
    93   88   90 1   
    94   88   94 1   
    95   88   95 1   
    96   89   96 1   
    97   89   97 1   
    98   89   98 1   
    99   90   99 1   
   100   90  100 1   
   101   90  101 1   
   102  102  103 1   
   103  102  110 1   
   104  103  104 1   
   105  103  106 1   
   106  103  111 1   
   107  104  105 2   
   108  104  114 1   
   109  106  107 1   
   110  106  112 1   
   111  106  113 1   
   112  107  108 1   
   113  107  109 1   
   114  114  115 1   
   115  114  125 1   
   116  115  116 1   
   117  115  118 1   
   118  115  126 1   
   119  116  117 2   
   120  116  134 1   
   121  118  119 1   
   122  118  127 1   
   123  118  128 1   
   124  119  120 ar  
   125  119  121 ar  
   126  120  122 ar  
   127  120  129 1   
   128  121  123 ar  
   129  121  130 1   
   130  122  124 ar  
   131  122  131 1   
   132  123  124 ar  
   133  123  132 1   
   134  124  133 1   
   135  134  135 1   
   136  134  140 1   
   137  135  136 1   
   138  135  138 1   
   139  135  141 1   
   140  136  137 2   
   141  136  148 1   
   142  138  139 1   
   143  138  142 1   
   144  138  143 1   
   145  139  140 1   
   146  139  144 1   
   147  139  145 1   
   148  140  146 1   
   149  140  147 1   
   150  148  149 1   
   151  148  157 1   
   152  149  150 1   
   153  149  152 1   
   154  149  158 1   
   155  150  151 2   
   156  150  163 1   
   157  152  153 1   
   158  152  159 1   
   159  152  160 1   
   160  153  154 1   
   161  153  161 1   
   162  153  162 1   
   163  154  155 1   
   164  154  156 1   
   165  163  164 1   
   166  163  168 1   
   167  164  165 1   
   168  164  166 1   
   169  164  167 1   
   170  170  171 1   
   171  170  172 1   
   172  173  174 1   
   173  173  175 1   
@<TRIPOS>SUBSTRUCTURE
     1 MOL         1 TEMP              0 ****  ****    0 ROOT
