@<TRIPOS>MOLECULE
MOL
  189   185     1     0     0
SMALL
resp


@<TRIPOS>ATOM
      1 C1         -2.2140    3.4050    5.7380 c3        1 MOL     -0.382313
      2 C2         -2.2850    2.9590    4.3020 c         1 MOL      0.624068
      3 O1         -1.5480    3.4200    3.4210 o         1 MOL     -0.610597
      4 H1         -1.7630    2.6160    6.3400 hc        1 MOL      0.107504
      5 H2         -1.6090    4.3080    5.8090 hc        1 MOL      0.107504
      6 H3         -3.2190    3.6100    6.1040 hc        1 MOL      0.107504
      7 N1         -3.2950    2.1780    3.9820 n         1 MOL     -0.540332
      8 C3         -3.6800    1.7650    2.6050 c3        1 MOL      0.269840
      9 C4         -4.3610    2.8490    1.7940 c         1 MOL      0.447364
     10 O2         -5.5120    2.7500    1.3760 o         1 MOL     -0.446264
     11 C5         -4.3720    0.3990    2.5880 c3        1 MOL     -0.559757
     12 C6         -4.6160   -0.0900    1.1310 c         1 MOL      0.954484
     13 O3         -3.7400    0.1610    0.3260 o         1 MOL     -0.710607
     14 O4         -5.6550   -0.7010    0.8800 o         1 MOL     -0.710607
     15 H4         -3.8680    1.7930    4.7160 hn        1 MOL      0.319031
     16 H5         -2.7530    1.6260    2.0630 h1        1 MOL     -0.029265
     17 H6         -5.3580    0.5590    3.0200 hc        1 MOL      0.131851
     18 H7         -3.7230   -0.3300    3.0890 hc        1 MOL      0.131851
     19 N2         -3.5860    3.9580    1.6280 n         1 MOL     -0.417863
     20 C7         -4.0760    5.2240    0.9390 c3        1 MOL     -0.154283
     21 C8         -4.4930    5.0770   -0.5540 c         1 MOL      0.525245
     22 O5         -5.0750    6.0100   -1.0400 o         1 MOL     -0.558540
     23 C9         -3.1530    6.3770    1.1670 c3        1 MOL      0.046351
     24 C10        -1.8360    6.3070    0.3450 c3        1 MOL     -0.071696
     25 C11        -0.6160    6.8320    1.1220 c3        1 MOL     -0.129646
     26 C12         0.6660    6.8630    0.1590 c3        1 MOL      0.181104
     27 N3          1.8780    7.2750    0.9190 n4        1 MOL     -0.436918
     28 H8         -2.6370    3.9350    1.9500 hn        1 MOL      0.385577
     29 H9         -4.9920    5.3810    1.5100 h1        1 MOL      0.128126
     30 H10        -2.9750    6.4410    2.2440 hc        1 MOL      0.024929
     31 H11        -3.6430    7.3360    0.9510 hc        1 MOL      0.024929
     32 H12        -1.9640    6.7850   -0.6210 hc        1 MOL      0.056912
     33 H13        -1.5990    5.2570    0.1790 hc        1 MOL      0.056912
     34 H14        -0.3550    6.1820    1.9590 hc        1 MOL      0.050421
     35 H15        -0.7140    7.8620    1.4810 hc        1 MOL      0.050421
     36 H16         0.5380    7.4790   -0.7230 hx        1 MOL      0.057189
     37 H17         0.9930    5.9080   -0.2450 hx        1 MOL      0.057189
     38 H18         1.8400    8.2390    1.2240 hn        1 MOL      0.337904
     39 H19         1.9940    6.7040    1.7410 hn        1 MOL      0.337904
     40 H20         2.6660    7.1100    0.3120 hn        1 MOL      0.337904
     41 N4         -4.3280    3.8830   -1.0890 n         1 MOL     -0.233930
     42 C13        -4.7530    3.6390   -2.5030 c3        1 MOL      0.033333
     43 C14        -5.7360    2.4510   -2.5830 c         1 MOL      0.323749
     44 O6         -6.1620    2.0810   -3.7390 o         1 MOL     -0.461949
     45 C15        -3.6040    3.4650   -3.5230 c3        1 MOL     -0.269789
     46 C16        -2.5440    2.4220   -3.1220 c         1 MOL      0.775974
     47 O7         -2.7070    1.5580   -2.1760 o         1 MOL     -0.719099
     48 O8         -1.3940    2.6230   -3.6200 o         1 MOL     -0.719099
     49 H21        -3.9810    3.1070   -0.5330 hn        1 MOL      0.155789
     50 H22        -5.3350    4.5190   -2.7900 h1        1 MOL      0.106514
     51 H23        -3.0370    4.3900   -3.5980 hc        1 MOL      0.077075
     52 H24        -4.1030    3.2130   -4.4600 hc        1 MOL      0.077075
     53 N5         -6.2260    1.8720   -1.4280 n         1 MOL     -0.095912
     54 C17        -7.4400    1.0490   -1.3760 c3        1 MOL     -0.268028
     55 C18        -7.4080   -0.2860   -2.1270 c         1 MOL      0.582961
     56 O9         -8.2490   -0.5020   -2.9690 o         1 MOL     -0.574587
     57 H25        -5.8980    2.1420   -0.5080 hn        1 MOL      0.128127
     58 H26        -8.2870    1.5390   -1.8690 h1        1 MOL      0.117130
     59 H27        -7.7010    0.8620   -0.3390 h1        1 MOL      0.117130
     60 N6         -6.5290   -1.1710   -1.7790 n         1 MOL     -0.166513
     61 C19        -6.4660   -2.6120   -2.2490 c3        1 MOL     -0.106102
     62 C20        -6.4600   -3.7110   -1.1130 c         1 MOL      0.554379
     63 O10        -6.6260   -4.8800   -1.4290 o         1 MOL     -0.544120
     64 C21        -5.1790   -2.7170   -3.1440 c3        1 MOL     -0.051296
     65 C22        -3.8630   -2.1730   -2.5780 c         1 MOL      0.656425
     66 O11        -3.6790   -2.4790   -1.3770 o         1 MOL     -0.691313
     67 O12        -2.9300   -1.6400   -3.2000 o         1 MOL     -0.691313
     68 H28        -6.0570   -0.9290   -0.9150 hn        1 MOL      0.001206
     69 H29        -7.3480   -2.8410   -2.8440 h1        1 MOL      0.115250
     70 H30        -5.4150   -2.1310   -4.0230 hc        1 MOL      0.031194
     71 H31        -4.9910   -3.7180   -3.5230 hc        1 MOL      0.031194
     72 N7         -6.3800   -3.3150    0.1650 n         1 MOL     -0.481086
     73 C23        -6.2830   -4.3370    1.2000 c3        1 MOL     -0.038609
     74 C24        -4.8590   -4.8420    1.5590 c         1 MOL      0.499140
     75 O13        -4.7430   -5.7380    2.3540 o         1 MOL     -0.561352
     76 H32        -5.9380   -2.4200    0.3090 hn        1 MOL      0.417745
     77 H33        -6.9910   -5.1550    1.0740 h1        1 MOL      0.078138
     78 H34        -6.5420   -3.8680    2.1500 h1        1 MOL      0.078138
     79 N8         -3.7910   -4.2900    0.8650 n         1 MOL     -0.102928
     80 C25        -2.3580   -4.7260    1.0090 c3        1 MOL     -0.375846
     81 C26        -1.4100   -3.5670    1.3230 c         1 MOL      0.728570
     82 O14        -1.6180   -2.4740    0.7960 o         1 MOL     -0.595805
     83 C27        -1.8280   -5.4860   -0.2920 c3        1 MOL      0.539070
     84 C28        -2.1470   -6.9320   -0.3260 c3        1 MOL     -0.317395
     85 O15        -2.3360   -4.8960   -1.4790 oh        1 MOL     -0.680865
     86 H35        -3.9730   -3.4680    0.3160 hn        1 MOL      0.058641
     87 H36        -2.3130   -5.3830    1.8850 h1        1 MOL      0.136778
     88 H37        -0.7480   -5.4360   -0.3460 h1        1 MOL     -0.064181
     89 H38        -2.6350   -3.9930   -1.3290 ho        1 MOL      0.516987
     90 H39        -3.2270   -6.8640   -0.2260 hc        1 MOL      0.076709
     91 H40        -1.8770   -7.3520   -1.2970 hc        1 MOL      0.076709
     92 H41        -1.7080   -7.4970    0.5030 hc        1 MOL      0.076709
     93 N9         -0.4360   -3.7900    2.2240 n         1 MOL     -0.613024
     94 C29         0.8220   -2.9320    2.2840 c3        1 MOL      0.084111
     95 C30         2.1000   -3.4920    1.5500 c         1 MOL      0.539086
     96 O16         2.2980   -4.6540    1.6560 o         1 MOL     -0.541745
     97 C31         1.0070   -2.5870    3.8160 c3        1 MOL      0.276892
     98 C32        -0.0750   -1.6100    4.3410 c3        1 MOL     -0.234776
     99 C33         2.3530   -1.8850    4.1540 c3        1 MOL     -0.549272
    100 C34        -0.4130   -0.2290    3.6220 c3        1 MOL      0.128531
    101 H42        -0.3950   -4.7050    2.6460 hn        1 MOL      0.306910
    102 H43         0.5780   -1.9760    1.8130 h1        1 MOL      0.152129
    103 H44         1.0340   -3.5290    4.3630 hc        1 MOL      0.010106
    104 H45         0.2390   -1.3910    5.3620 hc        1 MOL      0.027095
    105 H46        -1.0440   -2.1180    4.3630 hc        1 MOL      0.027095
    106 H47         3.1760   -2.5920    4.0630 hc        1 MOL      0.138508
    107 H48         2.5930   -1.0410    3.5070 hc        1 MOL      0.138508
    108 H49         2.3610   -1.4170    5.1420 hc        1 MOL      0.138508
    109 H50         0.5570    0.1810    3.3350 hc        1 MOL      0.005178
    110 H51        -1.0090   -0.4690    2.7410 hc        1 MOL      0.005178
    111 H52        -1.0090    0.4690    4.2150 hc        1 MOL      0.005178
    112 N10         2.9120   -2.6470    0.8860 n         1 MOL     -0.169125
    113 C35         4.0610   -3.0310    0.0720 c3        1 MOL     -0.019974
    114 C36         5.3770   -2.4410    0.5120 c         1 MOL      0.479529
    115 O17         5.3950   -1.4800    1.3230 o         1 MOL     -0.397296
    116 C37         3.8430   -2.6750   -1.4290 c3        1 MOL      0.417370
    117 C38         2.7690   -3.6050   -2.0440 c3        1 MOL     -0.314430
    118 O18         3.5010   -1.3000   -1.4770 oh        1 MOL     -0.687748
    119 H53         2.6610   -1.6670    0.8860 hn        1 MOL     -0.173578
    120 H54         4.1850   -4.1030    0.1580 h1        1 MOL      0.058475
    121 H55         4.8030   -2.7540   -1.9550 h1        1 MOL     -0.023518
    122 H56         2.6030   -1.1630   -1.2020 ho        1 MOL      0.484700
    123 H57         2.1130   -3.9590   -1.2470 hc        1 MOL      0.087991
    124 H58         2.3020   -3.0080   -2.8280 hc        1 MOL      0.087991
    125 H59         3.2980   -4.4850   -2.3980 hc        1 MOL      0.087991
    126 N11         6.5300   -2.8020   -0.0690 n         1 MOL     -0.480806
    127 C39         7.8020   -2.0710    0.2190 c3        1 MOL      0.128524
    128 C40         7.7350   -0.5270   -0.0320 c         1 MOL      0.217027
    129 O19         8.2680    0.2080    0.7850 o         1 MOL     -0.500479
    130 C41         8.9410   -2.6110   -0.7080 c3        1 MOL      0.286322
    131 C42         9.2600   -4.0710   -0.6380 c3        1 MOL     -0.264992
    132 O20         8.5680   -2.2070   -2.0040 oh        1 MOL     -0.628172
    133 H60         6.4880   -3.5110   -0.7900 hn        1 MOL      0.286985
    134 H61         8.1480   -2.3030    1.2270 h1        1 MOL      0.095018
    135 H62         9.8220   -2.0980   -0.3090 h1        1 MOL      0.012293
    136 H63         9.4030   -1.9900   -2.4120 ho        1 MOL      0.383255
    137 H64        10.0710   -4.3440   -1.3240 hc        1 MOL      0.079747
    138 H65         9.5570   -4.3490    0.3650 hc        1 MOL      0.079747
    139 H66         8.4260   -4.7570   -0.7990 hc        1 MOL      0.079747
    140 N12         7.0650    0.0020   -1.0430 n         1 MOL      0.010631
    141 C43         6.8330    1.4490   -1.2290 c3        1 MOL     -0.222542
    142 C44         5.9450    2.0720   -0.1250 c         1 MOL      0.497688
    143 O21         5.8510    3.3220   -0.1260 o         1 MOL     -0.572812
    144 C45         6.3190    1.7050   -2.6250 c3        1 MOL     -0.029012
    145 C46         7.0380    1.0490   -3.7330 c3        1 MOL     -0.060986
    146 C47         8.5590    1.2760   -3.7560 c3        1 MOL     -0.125644
    147 C48         8.8610    2.8310   -3.7920 c3        1 MOL      0.262593
    148 N13        10.2220    3.1060   -4.2240 n4        1 MOL     -0.414855
    149 H67         6.6180   -0.5930   -1.7380 hn        1 MOL      0.277270
    150 H68         7.7750    1.9650   -1.0560 h1        1 MOL      0.117981
    151 H69         6.2280    2.7780   -2.7820 hc        1 MOL      0.053106
    152 H70         5.3240    1.2640   -2.6210 hc        1 MOL      0.053106
    153 H71         6.7290    1.5210   -4.6720 hc        1 MOL      0.047996
    154 H72         6.7890   -0.0110   -3.7580 hc        1 MOL      0.047996
    155 H73         9.1060    0.8930   -4.6220 hc        1 MOL      0.034105
    156 H74         9.1070    0.9970   -2.8580 hc        1 MOL      0.034105
    157 H75         8.7740    3.2460   -2.7850 hx        1 MOL      0.024187
    158 H76         8.2060    3.4090   -4.4410 hx        1 MOL      0.024187
    159 H77        10.9200    2.7280   -3.6010 hn        1 MOL      0.307930
    160 H78        10.2870    2.7110   -5.1440 hn        1 MOL      0.307930
    161 H79        10.4130    4.0980   -4.2420 hn        1 MOL      0.307930
    162 N14         5.2350    1.2680    0.6660 n         1 MOL     -0.024570
    163 C49         4.2950    1.9130    1.6160 c3        1 MOL     -0.323871
    164 C50         4.7670    1.6700    3.0500 c         1 MOL      0.540136
    165 O22         4.4940    2.4710    3.9150 o         1 MOL     -0.565601
    166 C51         2.8830    1.3280    1.4080 c3        1 MOL      0.086614
    167 C52         2.3250    1.5480   -0.0410 c3        1 MOL      0.014175
    168 C53         1.0290    0.7430   -0.1400 c         1 MOL      0.584793
    169 O23         1.0350   -0.4730   -0.3450 o         1 MOL     -0.705393
    170 O24        -0.0740    1.3500    0.0720 o         1 MOL     -0.705393
    171 H80         5.2570    0.2570    0.6430 hn        1 MOL     -0.071408
    172 H81         4.2180    2.9980    1.5380 h1        1 MOL      0.144006
    173 H82         2.1640    1.5460    2.1970 hc        1 MOL      0.049842
    174 H83         3.0290    0.2830    1.6840 hc        1 MOL      0.049842
    175 H84         3.0590    1.3480   -0.8220 hc        1 MOL      0.009108
    176 H85         1.9980    2.5770   -0.1590 hc        1 MOL      0.009108
    177 N15         5.4860    0.6290    3.3540 n         1 MOL     -0.192217
    178 C54         5.8180    0.1220    4.6880 c3        1 MOL     -0.123223
    179 H86         6.2970   -0.8530    4.5960 h1        1 MOL      0.071481
    180 H87         6.4990    0.8150    5.1820 h1        1 MOL      0.071481
    181 H88         4.9070    0.0240    5.2770 h1        1 MOL      0.071481
    182 H89         5.6310   -0.0760    2.6440 hn        1 MOL      0.193818
    183 Ca1        -1.7590   -0.4730   -1.0320 Ca        1 MOL      1.734345
    184 O25        -0.0930    0.1450   -3.1640 oh        1 MOL     -0.823625
    185 H90        -0.5720    0.9180   -3.4480 ho        1 MOL      0.387741
    186 H91         0.7320    0.1760   -3.6350 ho        1 MOL      0.387741
    187 O26        -0.3160   -2.5360   -2.0020 oh        1 MOL     -0.823625
    188 H92        -0.5730   -3.3130   -2.4790 ho        1 MOL      0.387741
    189 H93         0.3440   -2.1220   -2.5610 ho        1 MOL      0.387741
@<TRIPOS>BOND
     1    1    2 1   
     2    1    4 1   
     3    1    5 1   
     4    1    6 1   
     5    2    3 2   
     6    2    7 1   
     7    7    8 1   
     8    7   15 1   
     9    8    9 1   
    10    8   11 1   
    11    8   16 1   
    12    9   10 2   
    13    9   19 1   
    14   11   12 1   
    15   11   17 1   
    16   11   18 1   
    17   12   13 1   
    18   12   14 1   
    19   19   20 1   
    20   19   28 1   
    21   20   21 1   
    22   20   23 1   
    23   20   29 1   
    24   21   22 2   
    25   21   41 1   
    26   23   24 1   
    27   23   30 1   
    28   23   31 1   
    29   24   25 1   
    30   24   32 1   
    31   24   33 1   
    32   25   26 1   
    33   25   34 1   
    34   25   35 1   
    35   26   27 1   
    36   26   36 1   
    37   26   37 1   
    38   27   38 1   
    39   27   39 1   
    40   27   40 1   
    41   41   42 1   
    42   41   49 1   
    43   42   43 1   
    44   42   45 1   
    45   42   50 1   
    46   43   44 2   
    47   43   53 1   
    48   45   46 1   
    49   45   51 1   
    50   45   52 1   
    51   46   47 1   
    52   46   48 1   
    53   53   54 1   
    54   53   57 1   
    55   54   55 1   
    56   54   58 1   
    57   54   59 1   
    58   55   56 2   
    59   55   60 1   
    60   60   61 1   
    61   60   68 1   
    62   61   62 1   
    63   61   64 1   
    64   61   69 1   
    65   62   63 2   
    66   62   72 1   
    67   64   65 1   
    68   64   70 1   
    69   64   71 1   
    70   65   66 1   
    71   65   67 1   
    72   72   73 1   
    73   72   76 1   
    74   73   74 1   
    75   73   77 1   
    76   73   78 1   
    77   74   75 2   
    78   74   79 1   
    79   79   80 1   
    80   79   86 1   
    81   80   81 1   
    82   80   83 1   
    83   80   87 1   
    84   81   82 2   
    85   81   93 1   
    86   83   84 1   
    87   83   85 1   
    88   83   88 1   
    89   84   90 1   
    90   84   91 1   
    91   84   92 1   
    92   85   89 1   
    93   93   94 1   
    94   93  101 1   
    95   94   95 1   
    96   94   97 1   
    97   94  102 1   
    98   95   96 2   
    99   95  112 1   
   100   97   98 1   
   101   97   99 1   
   102   97  103 1   
   103   98  100 1   
   104   98  104 1   
   105   98  105 1   
   106   99  106 1   
   107   99  107 1   
   108   99  108 1   
   109  100  109 1   
   110  100  110 1   
   111  100  111 1   
   112  112  113 1   
   113  112  119 1   
   114  113  114 1   
   115  113  116 1   
   116  113  120 1   
   117  114  115 2   
   118  114  126 1   
   119  116  117 1   
   120  116  118 1   
   121  116  121 1   
   122  117  123 1   
   123  117  124 1   
   124  117  125 1   
   125  118  122 1   
   126  126  127 1   
   127  126  133 1   
   128  127  128 1   
   129  127  130 1   
   130  127  134 1   
   131  128  129 2   
   132  128  140 1   
   133  130  131 1   
   134  130  132 1   
   135  130  135 1   
   136  131  137 1   
   137  131  138 1   
   138  131  139 1   
   139  132  136 1   
   140  140  141 1   
   141  140  149 1   
   142  141  142 1   
   143  141  144 1   
   144  141  150 1   
   145  142  143 2   
   146  142  162 1   
   147  144  145 1   
   148  144  151 1   
   149  144  152 1   
   150  145  146 1   
   151  145  153 1   
   152  145  154 1   
   153  146  147 1   
   154  146  155 1   
   155  146  156 1   
   156  147  148 1   
   157  147  157 1   
   158  147  158 1   
   159  148  159 1   
   160  148  160 1   
   161  148  161 1   
   162  162  163 1   
   163  162  171 1   
   164  163  164 1   
   165  163  166 1   
   166  163  172 1   
   167  164  165 2   
   168  164  177 1   
   169  166  167 1   
   170  166  173 1   
   171  166  174 1   
   172  167  168 1   
   173  167  175 1   
   174  167  176 1   
   175  168  169 1   
   176  168  170 1   
   177  177  178 1   
   178  177  182 1   
   179  178  179 1   
   180  178  180 1   
   181  178  181 1   
   182  184  185 1   
   183  184  186 1   
   184  187  188 1   
   185  187  189 1   
@<TRIPOS>SUBSTRUCTURE
     1 MOL         1 TEMP              0 ****  ****    0 ROOT
