@<TRIPOS>MOLECULE
MOL
  183   181     1     0     0
SMALL
resp


@<TRIPOS>ATOM
      1 C1          0.5100    2.3720   -5.9510 c3        1 MOL     -0.361734
      2 C2          0.9550    2.3190   -4.4680 c         1 MOL      0.701233
      3 O1          0.2260    2.9530   -3.6720 o         1 MOL     -0.552651
      4 H1          1.1760    1.7540   -6.5530 hc        1 MOL      0.084393
      5 H2         -0.5100    1.9970   -6.0390 hc        1 MOL      0.084393
      6 H3          0.5510    3.4020   -6.3070 hc        1 MOL      0.084393
      7 N1          2.1810    1.7060   -4.1720 n         1 MOL     -0.566283
      8 C3          2.6250    1.4950   -2.8140 c3        1 MOL      0.184823
      9 C4          3.0480    2.8790   -2.2590 c         1 MOL      0.347906
     10 O2          3.9400    3.5770   -2.8900 o         1 MOL     -0.567496
     11 C5          3.7590    0.5260   -2.7880 c3        1 MOL     -0.122107
     12 C6          4.3930    0.3460   -1.4610 c         1 MOL      0.716397
     13 O3          5.4510   -0.3370   -1.3950 o         1 MOL     -0.716153
     14 O4          3.9010    0.8200   -0.4290 o         1 MOL     -0.716153
     15 H4          2.7160    1.2310   -4.8910 hn        1 MOL      0.305273
     16 H5          1.7650    1.1290   -2.2500 h1        1 MOL     -0.026181
     17 H6          4.5020    0.9410   -3.4680 hc        1 MOL      0.028798
     18 H7          3.5060   -0.4350   -3.2150 hc        1 MOL      0.028798
     19 N2          2.5250    3.3480   -1.1380 n         1 MOL     -0.087885
     20 C7          2.8650    4.7130   -0.6350 c3        1 MOL     -0.261706
     21 C8          4.1180    4.6830    0.2350 c         1 MOL      0.547268
     22 O5          4.8610    5.6620    0.3070 o         1 MOL     -0.561680
     23 C9          1.5060    5.3290   -0.0220 c3        1 MOL      0.205379
     24 C10         0.2410    5.0960   -0.9110 c3        1 MOL      0.020276
     25 C11         1.8220    6.8190    0.2090 c3        1 MOL     -0.161357
     26 C12        -0.9740    5.7410   -0.3390 c3        1 MOL     -0.224083
     27 H8          1.8880    2.8060   -0.5770 hn        1 MOL      0.223635
     28 H9          3.1690    5.3000   -1.5050 h1        1 MOL      0.112631
     29 H10         1.3110    4.8440    0.9310 hc        1 MOL      0.018013
     30 H11        -0.0250    4.0430   -0.9550 hc        1 MOL      0.027169
     31 H12         0.4340    5.4860   -1.9150 hc        1 MOL      0.027169
     32 H13         1.0980    7.2960    0.8710 hc        1 MOL      0.022195
     33 H14         2.7770    6.9470    0.7190 hc        1 MOL      0.022195
     34 H15         1.8300    7.4050   -0.7000 hc        1 MOL      0.022195
     35 H16        -1.0930    5.2300    0.6230 hc        1 MOL      0.037442
     36 H17        -0.8960    6.8320   -0.2390 hc        1 MOL      0.037442
     37 H18        -1.9150    5.5170   -0.8380 hc        1 MOL      0.037442
     38 N3          4.4190    3.5730    0.9460 n         1 MOL     -0.165903
     39 C13         5.4670    3.4580    1.8970 c3        1 MOL     -0.131351
     40 C14         6.7530    3.1920    1.1620 c         1 MOL      0.523101
     41 O6          7.7460    3.9840    1.3420 o         1 MOL     -0.585972
     42 C15         5.2630    2.2180    2.8250 c3        1 MOL      0.028211
     43 C16         3.8710    2.0170    3.3680 c         1 MOL      0.672003
     44 O7          2.9590    1.6530    2.5770 o         1 MOL     -0.699996
     45 O8          3.7380    2.1440    4.6420 o         1 MOL     -0.699996
     46 H19         3.7910    2.7950    0.8210 hn        1 MOL      0.113205
     47 H20         5.5120    4.3240    2.5560 h1        1 MOL      0.094348
     48 H21         5.9270    2.4070    3.6660 hc        1 MOL     -0.026888
     49 H22         5.6060    1.2780    2.3910 hc        1 MOL     -0.026888
     50 N4          6.7100    2.2350    0.2640 n         1 MOL     -0.353958
     51 C17         7.9160    1.6120   -0.2380 c3        1 MOL      0.069862
     52 C18         8.2570    0.1340    0.3300 c         1 MOL      0.349307
     53 O9          9.4270   -0.2340    0.3410 o         1 MOL     -0.568478
     54 H23         5.8250    1.8510   -0.0500 hn        1 MOL      0.265791
     55 H24         8.7830    2.2420   -0.0410 h1        1 MOL      0.046677
     56 H25         8.0330    1.5760   -1.3230 h1        1 MOL      0.046677
     57 N5          7.2840   -0.6050    0.8480 n         1 MOL     -0.101359
     58 C19         7.3960   -2.0420    1.2760 c3        1 MOL     -0.148417
     59 C20         7.2950   -3.0820    0.1710 c         1 MOL      0.452800
     60 O10         7.6380   -4.2350    0.4590 o         1 MOL     -0.571854
     61 C21         6.3150   -2.4270    2.3530 c3        1 MOL     -0.069880
     62 C22         4.9100   -1.9040    1.9180 c         1 MOL      0.584569
     63 O11         4.3540   -1.1110    2.6690 o         1 MOL     -0.670297
     64 O12         4.4020   -2.1490    0.8200 o         1 MOL     -0.670297
     65 H26         6.3410   -0.2670    0.7350 hn        1 MOL      0.168004
     66 H27         8.3400   -2.1320    1.8180 h1        1 MOL      0.125541
     67 H28         6.5370   -1.9530    3.3040 hc        1 MOL      0.037011
     68 H29         6.2740   -3.5040    2.5460 hc        1 MOL      0.037011
     69 N6          6.8590   -2.7850   -1.0800 n         1 MOL     -0.143294
     70 C23         6.6450   -3.7340   -2.1730 c3        1 MOL     -0.252723
     71 C24         5.2180   -4.3290   -2.2220 c         1 MOL      0.747966
     72 O13         5.0750   -5.2860   -2.9060 o         1 MOL     -0.608023
     73 H30         6.4370   -1.8670   -1.1230 hn        1 MOL      0.185523
     74 H31         7.3440   -4.5390   -1.9910 h1        1 MOL      0.092301
     75 H32         6.8300   -3.1710   -3.0840 h1        1 MOL      0.092301
     76 N7          4.1500   -3.6950   -1.6250 n         1 MOL     -0.504736
     77 C25         2.8020   -4.2530   -1.6770 c3        1 MOL      0.011130
     78 C26         1.7030   -3.1190   -1.6020 c         1 MOL      0.666706
     79 O14         2.0340   -1.9820   -1.2930 o         1 MOL     -0.594304
     80 C27         2.5830   -5.3430   -0.6230 c3        1 MOL     -0.006893
     81 C28         2.7600   -4.8820    0.8500 c3        1 MOL     -0.090671
     82 C29         1.5650   -4.1120    1.4610 c         1 MOL      0.582859
     83 N8          0.6250   -4.8200    2.0810 n         1 MOL     -0.749057
     84 O15         1.4780   -2.8800    1.3580 o         1 MOL     -0.594517
     85 H33         4.3460   -2.9850   -0.9360 hn        1 MOL      0.327976
     86 H34         2.6850   -4.8100   -2.6100 h1        1 MOL      0.038214
     87 H35         3.2460   -6.1830   -0.8110 hc        1 MOL     -0.001305
     88 H36         1.5460   -5.6780   -0.6390 hc        1 MOL     -0.001305
     89 H37         3.6460   -4.2780    1.0620 hc        1 MOL      0.043350
     90 H38         2.8820   -5.7700    1.4580 hc        1 MOL      0.043350
     91 H39         0.7160   -5.7940    2.3110 hn        1 MOL      0.342503
     92 H40        -0.0950   -4.2350    2.4790 hn        1 MOL      0.342503
     93 N9          0.4810   -3.5320   -1.9120 n         1 MOL     -0.506015
     94 C30        -0.7010   -2.5850   -1.9370 c3        1 MOL      0.065855
     95 C31        -1.7640   -3.1720   -1.0600 c         1 MOL      0.471183
     96 O16        -2.2340   -4.2820   -1.3000 o         1 MOL     -0.604472
     97 C32        -1.1540   -2.3380   -3.4030 c3        1 MOL      0.121183
     98 C33        -2.5630   -1.5800   -3.5260 c3        1 MOL     -0.260236
     99 C34        -0.0450   -1.6090   -4.1830 c3        1 MOL     -0.260236
    100 H41         0.3030   -4.4910   -2.1680 hn        1 MOL      0.287892
    101 H42        -0.3700   -1.6520   -1.4870 h1        1 MOL      0.160543
    102 H43        -1.3600   -3.3180   -3.8310 hc        1 MOL     -0.005033
    103 H44        -3.0160   -1.5930   -4.5220 hc        1 MOL      0.057846
    104 H45        -3.3480   -1.9060   -2.8410 hc        1 MOL      0.057846
    105 H46        -2.4340   -0.5300   -3.2720 hc        1 MOL      0.057846
    106 H47         0.8560   -2.2090   -4.0490 hc        1 MOL      0.057846
    107 H48        -0.4250   -1.4390   -5.1860 hc        1 MOL      0.057846
    108 H49         0.1390   -0.7060   -3.6060 hc        1 MOL      0.057846
    109 N10        -2.2730   -2.4360   -0.1070 n         1 MOL     -0.136066
    110 C35        -3.4430   -2.6540    0.6960 c3        1 MOL      0.010489
    111 C36        -4.6080   -1.8020    0.2290 c         1 MOL      0.447104
    112 O17        -4.3870   -0.9980   -0.6190 o         1 MOL     -0.209069
    113 C37        -3.0820   -2.2330    2.1350 c3        1 MOL     -0.325121
    114 C38        -2.3900   -3.3100    2.9580 c         1 MOL      0.895318
    115 N11        -2.9840   -4.5120    3.0280 n         1 MOL     -0.927659
    116 O18        -1.3370   -3.1720    3.4810 o         1 MOL     -0.574585
    117 H50        -1.7260   -1.6060    0.0430 hn        1 MOL      0.088592
    118 H51        -3.7460   -3.7000    0.5850 h1        1 MOL      0.025523
    119 H52        -3.9450   -1.9130    2.7160 hc        1 MOL      0.065907
    120 H53        -2.5360   -1.2930    2.0930 hc        1 MOL      0.065907
    121 H54        -3.6230   -4.8130    2.2960 hn        1 MOL      0.383769
    122 H55        -2.5720   -5.2160    3.6180 hn        1 MOL      0.383769
    123 N12        -5.8200   -1.9660    0.7720 n         1 MOL     -0.563970
    124 C39        -7.0490   -1.4040    0.2590 c3        1 MOL      0.273747
    125 C40        -7.0250    0.0900    0.4150 c         1 MOL      0.622325
    126 O19        -7.4360    0.8240   -0.4660 o         1 MOL     -0.545447
    127 C41        -8.3920   -2.0100    0.7680 c3        1 MOL     -0.192564
    128 C42        -9.6840   -1.4310    0.1410 ca        1 MOL      0.129728
    129 C43       -10.0700   -1.8190   -1.2030 ca        1 MOL     -0.325520
    130 C44       -10.4630   -0.4540    0.8320 ca        1 MOL     -0.325520
    131 C45       -11.2790   -1.3050   -1.7760 ca        1 MOL     -0.024421
    132 C46       -11.6290    0.0340    0.2420 ca        1 MOL     -0.024421
    133 C47       -12.0470   -0.4200   -0.9500 ca        1 MOL      0.117778
    134 O20       -13.1020    0.1880   -1.5190 oh        1 MOL     -0.469630
    135 H56        -5.9070   -2.7010    1.4570 hn        1 MOL      0.284798
    136 H57        -7.0260   -1.5790   -0.8100 h1        1 MOL      0.008020
    137 H58        -8.3440   -1.7540    1.8260 hc        1 MOL      0.052645
    138 H59        -8.4110   -3.0940    0.6110 hc        1 MOL      0.052645
    139 H60        -9.4240   -2.3870   -1.8490 ha        1 MOL      0.176524
    140 H61       -10.2010   -0.1060    1.8160 ha        1 MOL      0.176524
    141 H62       -11.6680   -1.4120   -2.7730 ha        1 MOL      0.095828
    142 H63       -12.2340    0.7030    0.8420 ha        1 MOL      0.095828
    143 H64       -13.4470    0.9090   -0.9830 ho        1 MOL      0.362565
    144 N13        -6.4790    0.5930    1.5290 n         1 MOL     -0.380305
    145 C48        -6.3200    2.0440    1.8800 c3        1 MOL     -0.188622
    146 C49        -5.3560    2.7350    0.8360 c         1 MOL      0.459987
    147 O21        -5.2330    3.9650    0.8310 o         1 MOL     -0.536062
    148 C50        -5.7190    2.1560    3.2920 c3        1 MOL      0.017889
    149 C51        -4.2300    1.6660    3.4490 c3        1 MOL     -0.581505
    150 C52        -3.9290    1.4040    4.9370 c         1 MOL      0.793583
    151 O22        -4.3760    0.4370    5.5610 o         1 MOL     -0.735539
    152 O23        -3.0960    2.1650    5.5620 o         1 MOL     -0.735539
    153 H65        -6.3360   -0.1000    2.2520 hn        1 MOL      0.253887
    154 H66        -7.2650    2.5860    1.8640 h1        1 MOL      0.109325
    155 H67        -6.3160    1.6410    4.0480 hc        1 MOL      0.049408
    156 H68        -5.8370    3.1930    3.6080 hc        1 MOL      0.049408
    157 H69        -3.6170    2.4280    2.9680 hc        1 MOL      0.193880
    158 H70        -4.0820    0.7260    2.9150 hc        1 MOL      0.193880
    159 N14        -4.5970    1.9840    0.0900 n         1 MOL     -0.212803
    160 C53        -3.6120    2.4420   -0.9350 c3        1 MOL     -0.004220
    161 C54        -4.2190    2.2240   -2.3140 c         1 MOL      0.411113
    162 O24        -4.0920    3.0580   -3.2470 o         1 MOL     -0.546525
    163 C55        -2.2560    1.7730   -0.9290 c3        1 MOL      0.368237
    164 C56        -1.8090    1.5250    0.5450 c3        1 MOL      0.008968
    165 C57        -0.3800    0.9420    0.4920 c         1 MOL      0.644509
    166 O25         0.6330    1.6920    0.6630 o         1 MOL     -0.707959
    167 O26        -0.1730   -0.2600    0.2840 o         1 MOL     -0.707959
    168 H71        -4.7790    0.9980    0.1980 hn        1 MOL      0.099184
    169 H72        -3.4560    3.5210   -0.9250 h1        1 MOL      0.094908
    170 H73        -1.5270    2.3490   -1.4960 hc        1 MOL     -0.100346
    171 H74        -2.4980    0.7810   -1.2970 hc        1 MOL     -0.100346
    172 H75        -2.5330    0.7850    0.8760 hc        1 MOL      0.002803
    173 H76        -1.7930    2.3480    1.2580 hc        1 MOL      0.002803
    174 N15        -5.0340    1.1320   -2.5040 n         1 MOL     -0.092545
    175 C58        -5.7400    0.7690   -3.7430 c3        1 MOL     -0.253555
    176 H77        -5.0900    0.1530   -4.3640 h1        1 MOL      0.095841
    177 H78        -6.6430    0.2110   -3.4970 h1        1 MOL      0.095841
    178 H79        -6.0090    1.6750   -4.2860 h1        1 MOL      0.095841
    179 H80        -4.9340    0.4930   -1.7380 hn        1 MOL      0.018227
    180 Ca1         2.3000   -0.4950    1.1120 Ca        1 MOL      1.766117
    181 O27         0.9480   -1.0140    3.3080 oh        1 MOL     -0.873425
    182 H81         0.4360   -1.8160    3.4250 ho        1 MOL      0.424354
    183 H82         1.0520   -0.6760    4.2070 ho        1 MOL      0.424354
@<TRIPOS>BOND
     1    1    2 1   
     2    1    4 1   
     3    1    5 1   
     4    1    6 1   
     5    2    3 2   
     6    2    7 1   
     7    7    8 1   
     8    7   15 1   
     9    8    9 1   
    10    8   11 1   
    11    8   16 1   
    12    9   10 2   
    13    9   19 1   
    14   11   12 1   
    15   11   17 1   
    16   11   18 1   
    17   12   13 1   
    18   12   14 1   
    19   19   20 1   
    20   19   27 1   
    21   20   21 1   
    22   20   23 1   
    23   20   28 1   
    24   21   22 2   
    25   21   38 1   
    26   23   24 1   
    27   23   25 1   
    28   23   29 1   
    29   24   26 1   
    30   24   30 1   
    31   24   31 1   
    32   25   32 1   
    33   25   33 1   
    34   25   34 1   
    35   26   35 1   
    36   26   36 1   
    37   26   37 1   
    38   38   39 1   
    39   38   46 1   
    40   39   40 1   
    41   39   42 1   
    42   39   47 1   
    43   40   41 2   
    44   40   50 1   
    45   42   43 1   
    46   42   48 1   
    47   42   49 1   
    48   43   44 1   
    49   43   45 1   
    50   50   51 1   
    51   50   54 1   
    52   51   52 1   
    53   51   55 1   
    54   51   56 1   
    55   52   53 2   
    56   52   57 1   
    57   57   58 1   
    58   57   65 1   
    59   58   59 1   
    60   58   61 1   
    61   58   66 1   
    62   59   60 2   
    63   59   69 1   
    64   61   62 1   
    65   61   67 1   
    66   61   68 1   
    67   62   63 1   
    68   62   64 1   
    69   69   70 1   
    70   69   73 1   
    71   70   71 1   
    72   70   74 1   
    73   70   75 1   
    74   71   72 2   
    75   71   76 1   
    76   76   77 1   
    77   76   85 1   
    78   77   78 1   
    79   77   80 1   
    80   77   86 1   
    81   78   79 2   
    82   78   93 1   
    83   80   81 1   
    84   80   87 1   
    85   80   88 1   
    86   81   82 1   
    87   81   89 1   
    88   81   90 1   
    89   82   83 1   
    90   82   84 2   
    91   83   91 1   
    92   83   92 1   
    93   93   94 1   
    94   93  100 1   
    95   94   95 1   
    96   94   97 1   
    97   94  101 1   
    98   95   96 2   
    99   95  109 1   
   100   97   98 1   
   101   97   99 1   
   102   97  102 1   
   103   98  103 1   
   104   98  104 1   
   105   98  105 1   
   106   99  106 1   
   107   99  107 1   
   108   99  108 1   
   109  109  110 1   
   110  109  117 1   
   111  110  111 1   
   112  110  113 1   
   113  110  118 1   
   114  111  112 2   
   115  111  123 1   
   116  113  114 1   
   117  113  119 1   
   118  113  120 1   
   119  114  115 1   
   120  114  116 2   
   121  115  121 1   
   122  115  122 1   
   123  123  124 1   
   124  123  135 1   
   125  124  125 1   
   126  124  127 1   
   127  124  136 1   
   128  125  126 2   
   129  125  144 1   
   130  127  128 1   
   131  127  137 1   
   132  127  138 1   
   133  128  129 ar  
   134  128  130 ar  
   135  129  131 ar  
   136  129  139 1   
   137  130  132 ar  
   138  130  140 1   
   139  131  133 ar  
   140  131  141 1   
   141  132  133 ar  
   142  132  142 1   
   143  133  134 1   
   144  134  143 1   
   145  144  145 1   
   146  144  153 1   
   147  145  146 1   
   148  145  148 1   
   149  145  154 1   
   150  146  147 2   
   151  146  159 1   
   152  148  149 1   
   153  148  155 1   
   154  148  156 1   
   155  149  150 1   
   156  149  157 1   
   157  149  158 1   
   158  150  151 1   
   159  150  152 1   
   160  159  160 1   
   161  159  168 1   
   162  160  161 1   
   163  160  163 1   
   164  160  169 1   
   165  161  162 2   
   166  161  174 1   
   167  163  164 1   
   168  163  170 1   
   169  163  171 1   
   170  164  165 1   
   171  164  172 1   
   172  164  173 1   
   173  165  166 1   
   174  165  167 1   
   175  174  175 1   
   176  174  179 1   
   177  175  176 1   
   178  175  177 1   
   179  175  178 1   
   180  181  182 1   
   181  181  183 1   
@<TRIPOS>SUBSTRUCTURE
     1 MOL         1 TEMP              0 ****  ****    0 ROOT
