@<TRIPOS>MOLECULE
MOL
  189   185     1     0     0
SMALL
resp


@<TRIPOS>ATOM
      1 C1         -2.5140    2.8060    6.5950 c3        1 MOL     -0.374607
      2 C2         -2.1570    2.7210    5.0970 c         1 MOL      0.854893
      3 O1         -1.4900    1.8160    4.6330 o         1 MOL     -0.640060
      4 H1         -2.5610    1.8010    7.0140 hc        1 MOL      0.083407
      5 H2         -1.7510    3.3830    7.1180 hc        1 MOL      0.083407
      6 H3         -3.4820    3.2930    6.7120 hc        1 MOL      0.083407
      7 N1         -2.6410    3.7170    4.3280 n         1 MOL     -0.778651
      8 C3         -2.8860    3.5450    2.8890 c3        1 MOL      0.597454
      9 C4         -2.6520    4.7810    1.9760 c         1 MOL      0.336556
     10 O2         -3.0010    5.8950    2.3750 o         1 MOL     -0.574479
     11 C5         -4.2790    2.9750    2.5720 c3        1 MOL     -0.554065
     12 C6         -4.6330    2.8410    1.1090 c         1 MOL      0.784183
     13 O3         -4.0260    2.1300    0.2850 o         1 MOL     -0.631364
     14 O4         -5.5060    3.5570    0.6840 o         1 MOL     -0.631364
     15 H4         -3.2120    4.4260    4.7560 hn        1 MOL      0.336368
     16 H5         -2.1540    2.8110    2.5460 h1        1 MOL     -0.089330
     17 H6         -4.9210    3.6800    3.1000 hc        1 MOL      0.082623
     18 H7         -4.1230    2.0030    3.0390 hc        1 MOL      0.082623
     19 N2         -2.0720    4.4870    0.8000 n         1 MOL      0.011091
     20 C7         -1.8230    5.4280   -0.3210 c3        1 MOL     -0.051144
     21 C8         -2.5900    5.0820   -1.6200 c         1 MOL      0.421095
     22 O5         -2.6380    5.9490   -2.5270 o         1 MOL     -0.587811
     23 C9         -0.2940    5.6390   -0.5010 c3        1 MOL      0.195200
     24 C10         0.3880    4.4370   -1.1900 c3        1 MOL      0.009227
     25 C11         0.3130    5.9870    0.9020 c3        1 MOL     -0.053857
     26 C12         1.8820    4.7810   -1.6050 c3        1 MOL     -0.314807
     27 H8         -1.8690    3.5160    0.5960 hn        1 MOL      0.006537
     28 H9         -2.2660    6.3710   -0.0030 h1        1 MOL      0.060374
     29 H10        -0.1900    6.5510   -1.0870 hc        1 MOL     -0.029502
     30 H11        -0.1870    4.3770   -2.1210 hc        1 MOL      0.017821
     31 H12         0.4250    3.4500   -0.7270 hc        1 MOL      0.017821
     32 H13         1.3310    6.3420    0.7760 hc        1 MOL     -0.010388
     33 H14        -0.2120    6.8540    1.3070 hc        1 MOL     -0.010388
     34 H15         0.3370    5.0960    1.5320 hc        1 MOL     -0.010388
     35 H16         2.3970    3.8730   -1.9050 hc        1 MOL      0.082528
     36 H17         1.9270    5.4580   -2.4550 hc        1 MOL      0.082528
     37 H18         2.4840    5.0940   -0.7450 hc        1 MOL      0.082528
     38 N3         -3.0500    3.8610   -1.8760 n         1 MOL     -0.170122
     39 C13        -3.6100    3.4910   -3.2240 c3        1 MOL      0.055096
     40 C14        -4.9860    2.7480   -3.2930 c         1 MOL      0.342160
     41 O6         -5.6320    2.7190   -4.3340 o         1 MOL     -0.564906
     42 C15        -2.6170    2.6640   -4.0130 c3        1 MOL     -0.174824
     43 C16        -2.0580    1.4650   -3.2850 c         1 MOL      0.739345
     44 O7         -2.4620    0.9800   -2.2360 o         1 MOL     -0.721792
     45 O8         -1.1470    0.8130   -3.8840 o         1 MOL     -0.721792
     46 H19        -3.0530    3.0880   -1.2340 hn        1 MOL      0.130721
     47 H20        -3.8210    4.4190   -3.7660 h1        1 MOL      0.088058
     48 H21        -1.7610    3.3450   -4.1220 hc        1 MOL      0.056442
     49 H22        -2.9410    2.4710   -5.0300 hc        1 MOL      0.056442
     50 N4         -5.4900    2.3030   -2.1570 n         1 MOL      0.063147
     51 C17        -6.9370    1.9710   -1.9830 c3        1 MOL     -0.239500
     52 C18        -7.2980    0.5440   -2.1920 c         1 MOL      0.560572
     53 O9         -8.4630    0.2240   -2.2230 o         1 MOL     -0.618519
     54 H23        -4.9390    2.4430   -1.3190 hn        1 MOL     -0.050882
     55 H24        -7.4490    2.5870   -2.7200 h1        1 MOL      0.106381
     56 H25        -7.1970    2.2540   -0.9620 h1        1 MOL      0.106381
     57 N5         -6.3290   -0.3130   -2.3060 n         1 MOL     -0.267105
     58 C19        -6.5250   -1.7390   -2.6430 c3        1 MOL     -0.012086
     59 C20        -7.0180   -2.6620   -1.4900 c         1 MOL      0.416631
     60 O10        -7.5170   -3.7100   -1.8580 o         1 MOL     -0.512978
     61 C21        -5.2350   -2.3420   -3.2600 c3        1 MOL     -0.259477
     62 C22        -3.9170   -2.1980   -2.5500 c         1 MOL      0.887963
     63 O11        -3.8570   -1.6550   -1.4440 o         1 MOL     -0.762777
     64 O12        -2.9290   -2.6280   -3.1690 o         1 MOL     -0.762777
     65 H26        -5.3750    0.0240   -2.2360 hn        1 MOL      0.178339
     66 H27        -7.3130   -1.7750   -3.3970 h1        1 MOL      0.106133
     67 H28        -5.1130   -1.8370   -4.2250 hc        1 MOL      0.072483
     68 H29        -5.5680   -3.3440   -3.5360 hc        1 MOL      0.072483
     69 N6         -6.8100   -2.3690   -0.1780 n         1 MOL     -0.248809
     70 C23        -7.1800   -3.3640    0.8750 c3        1 MOL     -0.095293
     71 C24        -6.0130   -4.2570    1.2790 c         1 MOL      0.593357
     72 O13        -6.2280   -5.3540    1.7750 o         1 MOL     -0.587315
     73 H30        -6.3530   -1.5070    0.0710 hn        1 MOL      0.207329
     74 H31        -8.0280   -3.9850    0.6070 h1        1 MOL      0.064421
     75 H32        -7.4780   -2.7580    1.7380 h1        1 MOL      0.064421
     76 N7         -4.7690   -3.8040    1.1220 n         1 MOL     -0.377634
     77 C25        -3.5220   -4.5020    1.4700 c3        1 MOL     -0.011612
     78 C26        -2.3570   -3.4180    1.6420 c         1 MOL      0.276633
     79 O14        -2.4770   -2.3020    1.1480 o         1 MOL     -0.402806
     80 C27        -3.1430   -5.5550    0.3680 c3        1 MOL     -0.394301
     81 C28        -2.8110   -4.8550   -0.9570 c3        1 MOL     -0.091685
     82 C29        -2.4230   -5.8750   -2.0230 c         1 MOL      0.673979
     83 N8         -2.4810   -5.5720   -3.2740 n         1 MOL     -0.841207
     84 O15        -2.0050   -6.9450   -1.6930 o         1 MOL     -0.612059
     85 H33        -4.6450   -2.8440    0.8320 hn        1 MOL      0.294101
     86 H34        -3.6360   -5.0950    2.3780 h1        1 MOL      0.063297
     87 H35        -4.0370   -6.1620    0.2330 hc        1 MOL      0.150366
     88 H36        -2.2600   -6.1160    0.6840 hc        1 MOL      0.150366
     89 H37        -1.9960   -4.1740   -0.7340 hc        1 MOL      0.100919
     90 H38        -3.7410   -4.4130   -1.3200 hc        1 MOL      0.100919
     91 H39        -2.7380   -4.6070   -3.4260 hn        1 MOL      0.378015
     92 H40        -2.1520   -6.2010   -3.9880 hn        1 MOL      0.378015
     93 N9         -1.3100   -3.8190    2.3890 n         1 MOL     -0.068928
     94 C30        -0.1260   -3.0390    2.6930 c3        1 MOL     -0.254101
     95 C31         1.0140   -3.4400    1.7370 c         1 MOL      0.622361
     96 O16         1.2540   -4.6340    1.5830 o         1 MOL     -0.586027
     97 C32         0.2860   -3.0180    4.1840 c3        1 MOL      0.195659
     98 C33         1.1310   -1.7670    4.5000 c3        1 MOL     -0.242465
     99 C34        -0.9260   -3.0420    5.1480 c3        1 MOL     -0.242465
    100 H41        -1.3680   -4.7570    2.7580 hn        1 MOL      0.222641
    101 H42        -0.3350   -2.0230    2.3650 h1        1 MOL      0.112512
    102 H43         0.8910   -3.9060    4.4120 hc        1 MOL      0.007155
    103 H44         0.6690   -0.8470    4.1570 hc        1 MOL      0.054109
    104 H45         1.3530   -1.8040    5.5730 hc        1 MOL      0.054109
    105 H46         2.0950   -1.8000    3.9930 hc        1 MOL      0.054109
    106 H47        -0.5020   -3.2750    6.1210 hc        1 MOL      0.054109
    107 H48        -1.4270   -2.0760    5.2530 hc        1 MOL      0.054109
    108 H49        -1.7320   -3.7190    4.8590 hc        1 MOL      0.054109
    109 N10         1.9430   -2.5650    1.3560 n         1 MOL     -0.327685
    110 C35         3.1560   -2.9540    0.6090 c3        1 MOL      0.284972
    111 C36         4.3950   -2.1830    1.0770 c         1 MOL      0.100341
    112 O17         4.2760   -1.1030    1.6730 o         1 MOL     -0.198595
    113 C37         2.7890   -2.8110   -0.8710 c3        1 MOL     -0.496053
    114 C38         2.9110   -1.3650   -1.3120 c         1 MOL      0.742305
    115 N11         1.8030   -0.7240   -1.5580 n         1 MOL     -0.721375
    116 O18         4.0510   -0.8600   -1.3430 o         1 MOL     -0.580652
    117 H50         1.9450   -1.5770    1.5630 hn        1 MOL      0.134603
    118 H51         3.3470   -4.0030    0.8070 h1        1 MOL      0.043182
    119 H52         1.7620   -3.1510   -0.9920 hc        1 MOL      0.148869
    120 H53         3.5260   -3.2100   -1.5700 hc        1 MOL      0.148869
    121 H54         0.9070   -1.1830   -1.4580 hn        1 MOL      0.360240
    122 H55         1.8410    0.1160   -2.1170 hn        1 MOL      0.360240
    123 N12         5.6490   -2.7400    1.0600 n         1 MOL     -0.263350
    124 C39         6.8770   -2.1420    1.7100 c3        1 MOL      0.001287
    125 C40         7.0510   -0.6490    1.3140 c         1 MOL      0.458779
    126 O19         7.3290    0.1150    2.2550 o         1 MOL     -0.587448
    127 C41         8.1260   -2.9420    1.2500 c3        1 MOL     -0.311919
    128 C42         8.4080   -2.8170   -0.1560 ca        1 MOL      0.175062
    129 C43         9.4650   -1.9110   -0.5130 ca        1 MOL     -0.280771
    130 C44         7.6710   -3.5440   -1.1610 ca        1 MOL     -0.280771
    131 C45         9.7040   -1.7360   -1.8440 ca        1 MOL     -0.178247
    132 C46         7.8870   -3.2560   -2.5550 ca        1 MOL     -0.178247
    133 C47         8.9390   -2.3000   -2.8720 ca        1 MOL      0.201199
    134 O20         9.0260   -1.8860   -4.1800 oh        1 MOL     -0.423420
    135 H56         5.7280   -3.6420    0.5950 hn        1 MOL      0.230231
    136 H57         6.7130   -2.1210    2.7860 h1        1 MOL      0.100376
    137 H58         7.9820   -3.9900    1.5230 hc        1 MOL      0.103300
    138 H59         9.0370   -2.6440    1.7800 hc        1 MOL      0.103300
    139 H60         9.9980   -1.3080    0.2000 ha        1 MOL      0.164909
    140 H61         6.9050   -4.2770   -0.9330 ha        1 MOL      0.164909
    141 H62        10.3190   -0.9100   -2.1780 ha        1 MOL      0.149101
    142 H63         7.2590   -3.7360   -3.2970 ha        1 MOL      0.149101
    143 H64         9.6430   -1.1470   -4.2330 ho        1 MOL      0.348687
    144 N13         6.7410   -0.1520    0.1280 n         1 MOL     -0.028005
    145 C48         6.9520    1.1860   -0.2920 c3        1 MOL     -0.030099
    146 C49         5.9230    2.2060    0.1370 c         1 MOL      0.387962
    147 O21         6.1750    3.3810    0.4990 o         1 MOL     -0.546079
    148 C50         7.0680    1.2520   -1.8760 c3        1 MOL     -0.111886
    149 C51         7.5630    2.6120   -2.4740 c3        1 MOL     -0.327242
    150 C52         7.5660    2.4720   -3.9880 c         1 MOL      0.722684
    151 O22         8.5740    2.0400   -4.5660 o         1 MOL     -0.735856
    152 O23         6.5510    2.8040   -4.6560 o         1 MOL     -0.735856
    153 H65         6.3380   -0.8400   -0.4850 hn        1 MOL      0.189117
    154 H66         7.9020    1.5160    0.1290 h1        1 MOL      0.071244
    155 H67         6.0930    1.1370   -2.3450 hc        1 MOL      0.094139
    156 H68         7.7960    0.4680   -2.0710 hc        1 MOL      0.094139
    157 H69         8.5070    2.8970   -2.0240 hc        1 MOL      0.070158
    158 H70         6.8610    3.4220   -2.2830 hc        1 MOL      0.070158
    159 N14         4.7050    1.7210    0.3280 n         1 MOL     -0.010203
    160 C53         3.6080    2.3600    1.1210 c3        1 MOL     -0.430515
    161 C54         3.8720    2.2900    2.6710 c         1 MOL      0.595489
    162 O24         3.5110    3.2180    3.3590 o         1 MOL     -0.586356
    163 C55         2.2890    1.7030    0.6710 c3        1 MOL      0.091793
    164 C56         1.1440    2.0170    1.6210 c3        1 MOL     -0.194232
    165 C57        -0.1140    1.3440    1.1390 c         1 MOL      0.899925
    166 O25        -0.3260    0.1620    1.2920 o         1 MOL     -0.795090
    167 O26        -0.9480    1.9950    0.4720 o         1 MOL     -0.795090
    168 H71         4.5190    0.7310    0.1900 hn        1 MOL     -0.077118
    169 H72         3.5680    3.3790    0.7290 h1        1 MOL      0.203933
    170 H73         2.4530    0.6330    0.5630 hc        1 MOL      0.076029
    171 H74         2.0020    2.1390   -0.2850 hc        1 MOL      0.076029
    172 H75         1.0180    3.0950    1.6580 hc        1 MOL      0.065925
    173 H76         1.4230    1.6660    2.6180 hc        1 MOL      0.065925
    174 N15         4.4570    1.2200    3.1120 n         1 MOL     -0.031682
    175 C58         4.7140    1.0650    4.5230 c3        1 MOL     -0.170679
    176 H77         4.3790    0.0800    4.8470 h1        1 MOL      0.063341
    177 H78         5.7830    1.1670    4.7120 h1        1 MOL      0.063341
    178 H79         4.1720    1.8320    5.0780 h1        1 MOL      0.063341
    179 H80         4.6560    0.4790    2.4670 hn        1 MOL      0.055643
    180 Ca1        -2.6970   -0.0290    0.0460 Ca        1 MOL      1.747706
    181 O27        -2.4810   -0.0920    2.8720 oh        1 MOL     -0.948713
    182 H81        -1.5760   -0.3750    2.7920 ho        1 MOL      0.457610
    183 H82        -2.5900    0.0990    3.8070 ho        1 MOL      0.457610
    184 O28        -5.1100   -0.5930    1.2670 oh        1 MOL     -0.948713
    185 H83        -5.8540   -0.0130    1.1350 ho        1 MOL      0.457610
    186 H84        -4.9810   -0.6220    2.2100 ho        1 MOL      0.457610
    187 O29        -0.9940   -1.3080   -1.7640 oh        1 MOL     -0.948713
    188 H85        -1.0300   -0.5470   -2.3520 ho        1 MOL      0.457610
    189 H86        -1.6130   -1.9300   -2.1470 ho        1 MOL      0.457610
@<TRIPOS>BOND
     1    1    2 1   
     2    1    4 1   
     3    1    5 1   
     4    1    6 1   
     5    2    3 2   
     6    2    7 1   
     7    7    8 1   
     8    7   15 1   
     9    8    9 1   
    10    8   11 1   
    11    8   16 1   
    12    9   10 2   
    13    9   19 1   
    14   11   12 1   
    15   11   17 1   
    16   11   18 1   
    17   12   13 1   
    18   12   14 1   
    19   19   20 1   
    20   19   27 1   
    21   20   21 1   
    22   20   23 1   
    23   20   28 1   
    24   21   22 2   
    25   21   38 1   
    26   23   24 1   
    27   23   25 1   
    28   23   29 1   
    29   24   26 1   
    30   24   30 1   
    31   24   31 1   
    32   25   32 1   
    33   25   33 1   
    34   25   34 1   
    35   26   35 1   
    36   26   36 1   
    37   26   37 1   
    38   38   39 1   
    39   38   46 1   
    40   39   40 1   
    41   39   42 1   
    42   39   47 1   
    43   40   41 2   
    44   40   50 1   
    45   42   43 1   
    46   42   48 1   
    47   42   49 1   
    48   43   44 1   
    49   43   45 1   
    50   50   51 1   
    51   50   54 1   
    52   51   52 1   
    53   51   55 1   
    54   51   56 1   
    55   52   53 2   
    56   52   57 1   
    57   57   58 1   
    58   57   65 1   
    59   58   59 1   
    60   58   61 1   
    61   58   66 1   
    62   59   60 2   
    63   59   69 1   
    64   61   62 1   
    65   61   67 1   
    66   61   68 1   
    67   62   63 1   
    68   62   64 1   
    69   69   70 1   
    70   69   73 1   
    71   70   71 1   
    72   70   74 1   
    73   70   75 1   
    74   71   72 2   
    75   71   76 1   
    76   76   77 1   
    77   76   85 1   
    78   77   78 1   
    79   77   80 1   
    80   77   86 1   
    81   78   79 2   
    82   78   93 1   
    83   80   81 1   
    84   80   87 1   
    85   80   88 1   
    86   81   82 1   
    87   81   89 1   
    88   81   90 1   
    89   82   83 1   
    90   82   84 2   
    91   83   91 1   
    92   83   92 1   
    93   93   94 1   
    94   93  100 1   
    95   94   95 1   
    96   94   97 1   
    97   94  101 1   
    98   95   96 2   
    99   95  109 1   
   100   97   98 1   
   101   97   99 1   
   102   97  102 1   
   103   98  103 1   
   104   98  104 1   
   105   98  105 1   
   106   99  106 1   
   107   99  107 1   
   108   99  108 1   
   109  109  110 1   
   110  109  117 1   
   111  110  111 1   
   112  110  113 1   
   113  110  118 1   
   114  111  112 2   
   115  111  123 1   
   116  113  114 1   
   117  113  119 1   
   118  113  120 1   
   119  114  115 1   
   120  114  116 2   
   121  115  121 1   
   122  115  122 1   
   123  123  124 1   
   124  123  135 1   
   125  124  125 1   
   126  124  127 1   
   127  124  136 1   
   128  125  126 2   
   129  125  144 1   
   130  127  128 1   
   131  127  137 1   
   132  127  138 1   
   133  128  129 ar  
   134  128  130 ar  
   135  129  131 ar  
   136  129  139 1   
   137  130  132 ar  
   138  130  140 1   
   139  131  133 ar  
   140  131  141 1   
   141  132  133 ar  
   142  132  142 1   
   143  133  134 1   
   144  134  143 1   
   145  144  145 1   
   146  144  153 1   
   147  145  146 1   
   148  145  148 1   
   149  145  154 1   
   150  146  147 2   
   151  146  159 1   
   152  148  149 1   
   153  148  155 1   
   154  148  156 1   
   155  149  150 1   
   156  149  157 1   
   157  149  158 1   
   158  150  151 1   
   159  150  152 1   
   160  159  160 1   
   161  159  168 1   
   162  160  161 1   
   163  160  163 1   
   164  160  169 1   
   165  161  162 2   
   166  161  174 1   
   167  163  164 1   
   168  163  170 1   
   169  163  171 1   
   170  164  165 1   
   171  164  172 1   
   172  164  173 1   
   173  165  166 1   
   174  165  167 1   
   175  174  175 1   
   176  174  179 1   
   177  175  176 1   
   178  175  177 1   
   179  175  178 1   
   180  181  182 1   
   181  181  183 1   
   182  184  185 1   
   183  184  186 1   
   184  187  188 1   
   185  187  189 1   
@<TRIPOS>SUBSTRUCTURE
     1 MOL         1 TEMP              0 ****  ****    0 ROOT
