@<TRIPOS>MOLECULE
MOL
  179   176     1     0     0
SMALL
resp


@<TRIPOS>ATOM
      1 C1          3.7420   -5.3910    4.6020 c3        1 MOL     -0.252062
      2 C2          3.4660   -4.7100    3.2170 c         1 MOL      0.642688
      3 O1          3.2050   -5.4140    2.2370 o         1 MOL     -0.549129
      4 H1          4.8010   -5.6360    4.6820 hc        1 MOL      0.064462
      5 H2          3.4660   -4.7070    5.4050 hc        1 MOL      0.064462
      6 H3          3.1510   -6.3040    4.6830 hc        1 MOL      0.064462
      7 N1          3.5730   -3.3520    3.1650 n         1 MOL     -0.604923
      8 C3          3.3770   -2.5330    1.9490 c3        1 MOL      0.229509
      9 C4          4.6380   -2.4450    1.0120 c         1 MOL      0.515162
     10 O2          5.1170   -1.3610    0.7460 o         1 MOL     -0.477384
     11 C5          2.8090   -1.1920    2.4180 c3        1 MOL     -0.214463
     12 C6          2.1760   -0.3620    1.3070 c         1 MOL      0.842206
     13 O3          1.3310   -0.9630    0.5820 o         1 MOL     -0.795659
     14 O4          2.4800    0.8320    1.0890 o         1 MOL     -0.795659
     15 H4          3.8550   -2.9900    4.0610 hn        1 MOL      0.319027
     16 H5          2.5940   -2.9350    1.3000 h1        1 MOL      0.070313
     17 H6          3.6340   -0.5570    2.7310 hc        1 MOL      0.039904
     18 H7          2.2110   -1.2840    3.3210 hc        1 MOL      0.039904
     19 N2          5.2620   -3.5970    0.6490 n         1 MOL     -0.481822
     20 C7          6.5260   -3.7510   -0.0540 c3        1 MOL      0.000638
     21 C8          6.7150   -3.0560   -1.3690 c         1 MOL      0.446862
     22 O5          7.7660   -3.1280   -1.9910 o         1 MOL     -0.514964
     23 C9          6.6960   -5.1900   -0.3430 c3        1 MOL     -0.082765
     24 C10         6.6980   -6.0710    0.9130 c3        1 MOL      0.282977
     25 C11         6.7850   -7.5700    0.5750 c3        1 MOL     -0.165509
     26 C12         6.9850   -8.3390    1.9000 c3        1 MOL      0.153980
     27 N3          7.3010   -9.7990    1.5930 n4        1 MOL     -0.413630
     28 H8          4.7860   -4.4230    0.9900 hn        1 MOL      0.243310
     29 H9          7.3640   -3.4870    0.5960 h1        1 MOL      0.090775
     30 H10         7.6320   -5.3850   -0.8690 hc        1 MOL      0.041751
     31 H11         5.8910   -5.5570   -0.9990 hc        1 MOL      0.041751
     32 H12         5.8030   -5.8970    1.5020 hc        1 MOL     -0.063976
     33 H13         7.5540   -5.8390    1.5460 hc        1 MOL     -0.063976
     34 H14         7.6910   -7.7720   -0.0000 hc        1 MOL      0.057192
     35 H15         5.8500   -7.8840    0.1180 hc        1 MOL      0.057192
     36 H16         6.1240   -8.3320    2.5780 hx        1 MOL      0.057916
     37 H17         7.8470   -7.8540    2.3730 hx        1 MOL      0.057916
     38 H18         8.1250   -9.9300    1.0290 hn        1 MOL      0.335791
     39 H19         7.4750  -10.3310    2.4350 hn        1 MOL      0.335791
     40 H20         6.4980  -10.1250    1.0670 hn        1 MOL      0.335791
     41 N4          5.6970   -2.2810   -1.8370 n         1 MOL     -0.329056
     42 C13         5.9380   -1.2370   -2.8720 c3        1 MOL      0.074822
     43 C14         6.7090   -0.0120   -2.4080 c         1 MOL      0.459482
     44 O6          7.4180    0.6150   -3.1940 o         1 MOL     -0.539660
     45 C15         4.5440   -0.8320   -3.5170 c3        1 MOL     -0.269245
     46 C16         3.4750   -0.4020   -2.5250 c         1 MOL      0.663047
     47 O7          3.5750    0.7850   -2.0700 o         1 MOL     -0.702567
     48 O8          2.5020   -1.1880   -2.1510 o         1 MOL     -0.702567
     49 H21         4.8110   -2.3120   -1.3680 hn        1 MOL      0.247591
     50 H22         6.5480   -1.6330   -3.6880 h1        1 MOL      0.078136
     51 H23         4.2570   -1.7470   -4.0370 hc        1 MOL      0.085759
     52 H24         4.7760   -0.0910   -4.2860 hc        1 MOL      0.085759
     53 N5          6.3480    0.5090   -1.2240 n         1 MOL     -0.257100
     54 C17         7.0000    1.6220   -0.5180 c3        1 MOL     -0.102399
     55 C18         6.4440    3.0670   -0.7310 c         1 MOL      0.490282
     56 O9          7.0580    4.0920   -0.3580 o         1 MOL     -0.565476
     57 H25         5.5700    0.0150   -0.8090 hn        1 MOL      0.248704
     58 H26         8.0190    1.6930   -0.8920 h1        1 MOL      0.084346
     59 H27         7.1420    1.4480    0.5510 h1        1 MOL      0.084346
     60 N6          5.1510    3.1370   -1.1350 n         1 MOL     -0.260923
     61 C19         4.4920    4.4480   -1.3820 c3        1 MOL     -0.020512
     62 C20         3.8180    5.1470   -0.1800 c         1 MOL      0.259725
     63 O10         3.3440    6.2580   -0.2870 o         1 MOL     -0.445002
     64 C21         3.5040    4.3770   -2.5610 c3        1 MOL     -0.331535
     65 C22         2.0730    4.1270   -2.2030 c         1 MOL      0.668265
     66 N7          1.1770    4.4660   -3.0180 n         1 MOL     -0.669679
     67 O11         1.7940    3.3510   -1.2930 o         1 MOL     -0.605641
     68 H28         4.7690    2.2360   -1.3530 hn        1 MOL      0.231408
     69 H29         5.2720    5.1590   -1.6370 h1        1 MOL      0.155459
     70 H30         3.7190    3.6140   -3.3150 hc        1 MOL      0.117788
     71 H31         3.6580    5.3270   -3.0640 hc        1 MOL      0.117788
     72 H32         1.4460    5.1290   -3.7430 hn        1 MOL      0.330772
     73 H33         0.2060    4.4540   -2.7260 hn        1 MOL      0.330772
     74 N8          3.6000    4.4560    0.9280 n         1 MOL     -0.010182
     75 C23         3.1120    5.0540    2.1800 c3        1 MOL     -0.408197
     76 C24         1.5480    4.9400    2.4730 c         1 MOL      0.563193
     77 O12         1.0050    5.6390    3.3120 o         1 MOL     -0.553544
     78 H34         3.9260    3.4930    0.9650 hn        1 MOL      0.200632
     79 H35         3.2300    6.1320    2.1800 h1        1 MOL      0.164375
     80 H36         3.6240    4.6420    3.0500 h1        1 MOL      0.164375
     81 N9          0.8580    4.1570    1.6830 n         1 MOL     -0.278908
     82 C25        -0.6050    3.9360    1.7900 c3        1 MOL     -0.083625
     83 C26        -0.9670    2.4460    1.4720 c         1 MOL      0.477536
     84 O13        -0.2760    1.7620    0.6990 o         1 MOL     -0.596525
     85 C27        -1.3830    4.9090    0.9150 c3        1 MOL      0.362855
     86 C28        -1.2350    6.3930    1.2470 ca        1 MOL     -0.212247
     87 C29        -0.1810    7.0930    0.6800 ca        1 MOL      0.036937
     88 C30        -2.1350    7.0730    2.0260 ca        1 MOL      0.036937
     89 C31        -0.0750    8.4600    0.7970 ca        1 MOL     -0.370631
     90 C32        -2.1450    8.4580    2.0410 ca        1 MOL     -0.370631
     91 C33        -1.0410    9.1610    1.4990 ca        1 MOL      0.442815
     92 O14        -0.9180   10.5710    1.6410 oh        1 MOL     -0.524432
     93 H37         1.3840    3.6460    0.9800 hn        1 MOL      0.251417
     94 H38        -0.9880    4.2140    2.7660 h1        1 MOL      0.066296
     95 H39        -2.4760    4.8310    0.9570 hc        1 MOL     -0.077310
     96 H40        -1.2640    4.6560   -0.1360 hc        1 MOL     -0.077310
     97 H41         0.5570    6.6240    0.0560 ha        1 MOL      0.083425
     98 H42        -2.8850    6.5290    2.5750 ha        1 MOL      0.083425
     99 H43         0.7480    9.0040    0.3530 ha        1 MOL      0.154064
    100 H44        -2.9680    8.9870    2.5150 ha        1 MOL      0.154064
    101 H45        -1.4320   10.9020    2.3860 ho        1 MOL      0.353271
    102 N10        -2.1490    2.0560    1.9180 n         1 MOL     -0.247169
    103 C34        -2.9560    0.9000    1.4550 c3        1 MOL     -0.130830
    104 C35        -4.3980    1.2960    1.0890 c         1 MOL      0.512888
    105 O15        -5.0700    2.0430    1.7890 o         1 MOL     -0.556447
    106 C36        -2.9470   -0.3250    2.4400 c3        1 MOL      0.108123
    107 C37        -3.0460   -0.0010    3.9380 c3        1 MOL      0.231998
    108 C38        -1.6750   -1.0970    2.2470 c3        1 MOL     -0.492310
    109 C39        -3.0280   -1.3120    4.8380 c3        1 MOL     -0.301004
    110 H46        -2.6600    2.5990    2.5870 hn        1 MOL      0.221584
    111 H47        -2.4630    0.5930    0.5320 h1        1 MOL      0.045294
    112 H48        -3.7670   -0.9750    2.1500 hc        1 MOL     -0.018193
    113 H49        -4.0140    0.4150    4.2120 hc        1 MOL     -0.039753
    114 H50        -2.2910    0.7350    4.2370 hc        1 MOL     -0.039753
    115 H51        -0.7590   -0.5680    2.5490 hc        1 MOL      0.150058
    116 H52        -1.6040   -2.0510    2.7630 hc        1 MOL      0.150058
    117 H53        -1.6110   -1.3770    1.1980 hc        1 MOL      0.150058
    118 H54        -2.0060   -1.6640    4.9490 hc        1 MOL      0.066271
    119 H55        -3.4740   -0.9810    5.7760 hc        1 MOL      0.066271
    120 H56        -3.6810   -2.0730    4.4080 hc        1 MOL      0.066271
    121 N11        -4.8530    0.8650   -0.0830 n         1 MOL     -0.271810
    122 C40        -6.2390    0.7910   -0.4620 c3        1 MOL      0.061523
    123 C41        -7.0090   -0.3590    0.1890 c         1 MOL      0.495417
    124 O16        -6.4750   -1.3090    0.7170 o         1 MOL     -0.417171
    125 C42        -6.3400    0.9000   -2.0030 c3        1 MOL     -0.014415
    126 O17        -5.8300   -0.3270   -2.5560 oh        1 MOL     -0.396533
    127 H57        -4.1700    0.4700   -0.7150 hn        1 MOL      0.193516
    128 H58        -6.7640    1.7080   -0.1870 h1        1 MOL      0.049081
    129 H59        -5.8460    1.7930   -2.3720 h1        1 MOL      0.050031
    130 H60        -7.4050    0.9790   -2.2330 h1        1 MOL      0.050031
    131 H61        -5.6530   -0.2980   -3.5010 ho        1 MOL      0.365635
    132 N12        -8.3000   -0.2710    0.1490 n         1 MOL     -0.445130
    133 C43        -9.1590   -1.4170    0.4160 c3        1 MOL      0.103010
    134 C44        -8.9670   -2.6200   -0.4790 c         1 MOL      0.453607
    135 O18        -8.9430   -3.7520    0.0840 o         1 MOL     -0.518847
    136 C45       -10.6920   -0.9940    0.3790 c3        1 MOL     -0.339696
    137 H62        -8.7340    0.5750   -0.1930 hn        1 MOL      0.285157
    138 H63        -8.9540   -1.7940    1.4150 h1        1 MOL      0.098212
    139 H64       -10.9900   -0.6830   -0.6180 hc        1 MOL      0.101575
    140 H65       -11.3650   -1.8120    0.6540 hc        1 MOL      0.101575
    141 H66       -10.9010   -0.1850    1.0860 hc        1 MOL      0.101575
    142 N13        -8.4930   -2.3890   -1.7120 n         1 MOL     -0.440392
    143 C46        -7.9710   -3.3880   -2.5730 c3        1 MOL      0.321506
    144 C47        -6.7470   -4.0940   -2.0150 c         1 MOL      0.249968
    145 O19        -6.6280   -5.3070   -2.2140 o         1 MOL     -0.496819
    146 C48        -7.7620   -2.7230   -3.9380 c3        1 MOL     -0.367946
    147 H67        -8.6050   -1.4630   -2.0830 hn        1 MOL      0.277715
    148 H68        -8.7120   -4.1850   -2.6910 h1        1 MOL      0.025592
    149 H69        -8.6910   -2.1990   -4.1510 hc        1 MOL      0.085572
    150 H70        -6.9050   -2.0460   -3.9990 hc        1 MOL      0.085572
    151 H71        -7.5470   -3.5240   -4.6400 hc        1 MOL      0.085572
    152 N14        -5.8560   -3.2460   -1.4980 n         1 MOL      0.158050
    153 C49        -4.5750   -3.7550   -0.9340 c3        1 MOL     -0.364159
    154 C50        -4.6910   -4.5170    0.4000 c         1 MOL      0.475151
    155 O20        -3.8620   -5.3750    0.7050 o         1 MOL     -0.541831
    156 C51        -3.5770   -2.5790   -0.9350 c3        1 MOL      0.340111
    157 C52        -3.0870   -2.0450   -2.3060 c3        1 MOL     -0.453920
    158 C53        -2.2230   -0.7430   -2.1360 c         1 MOL      0.932116
    159 O21        -2.8080    0.3870   -2.1390 o         1 MOL     -0.751962
    160 O22        -0.9780   -0.7930   -2.1030 o         1 MOL     -0.751962
    161 H72        -5.9960   -2.2470   -1.5140 hn        1 MOL     -0.042537
    162 H73        -4.1770   -4.4990   -1.6270 h1        1 MOL      0.155491
    163 H74        -2.7000   -2.7850   -0.3290 hc        1 MOL     -0.027651
    164 H75        -4.0780   -1.7140   -0.4850 hc        1 MOL     -0.027651
    165 H76        -3.9050   -1.9270   -3.0160 hc        1 MOL      0.078007
    166 H77        -2.3980   -2.8580   -2.5530 hc        1 MOL      0.078007
    167 N15        -5.7130   -4.2710    1.2260 n         1 MOL     -0.105174
    168 C54        -5.9300   -4.8580    2.5840 c3        1 MOL     -0.249811
    169 H78        -4.9680   -5.1160    3.0250 h1        1 MOL      0.103176
    170 H79        -6.4370   -4.1310    3.2180 h1        1 MOL      0.103176
    171 H80        -6.5420   -5.7560    2.4980 h1        1 MOL      0.103176
    172 H81        -6.3790   -3.5270    1.0360 hn        1 MOL      0.162309
    173 Ca1         0.9230    0.7720   -1.3170 Ca        1 MOL      1.808138
    174 O23        -1.1730    2.4290   -2.1340 oh        1 MOL     -0.867591
    175 H82        -1.7590    3.1900   -2.1570 ho        1 MOL      0.419516
    176 H83        -1.7580    1.6720   -2.1120 ho        1 MOL      0.419516
    177 O24         1.0860    1.2540   -4.0240 oh        1 MOL     -0.867591
    178 H84         0.5920    0.7940   -4.7000 ho        1 MOL      0.419516
    179 H85         1.7120    1.7890   -4.5020 ho        1 MOL      0.419516
@<TRIPOS>BOND
     1    1    2 1   
     2    1    4 1   
     3    1    5 1   
     4    1    6 1   
     5    2    3 2   
     6    2    7 1   
     7    7    8 1   
     8    7   15 1   
     9    8    9 1   
    10    8   11 1   
    11    8   16 1   
    12    9   10 2   
    13    9   19 1   
    14   11   12 1   
    15   11   17 1   
    16   11   18 1   
    17   12   13 1   
    18   12   14 1   
    19   19   20 1   
    20   19   28 1   
    21   20   21 1   
    22   20   23 1   
    23   20   29 1   
    24   21   22 2   
    25   21   41 1   
    26   23   24 1   
    27   23   30 1   
    28   23   31 1   
    29   24   25 1   
    30   24   32 1   
    31   24   33 1   
    32   25   26 1   
    33   25   34 1   
    34   25   35 1   
    35   26   27 1   
    36   26   36 1   
    37   26   37 1   
    38   27   38 1   
    39   27   39 1   
    40   27   40 1   
    41   41   42 1   
    42   41   49 1   
    43   42   43 1   
    44   42   45 1   
    45   42   50 1   
    46   43   44 2   
    47   43   53 1   
    48   45   46 1   
    49   45   51 1   
    50   45   52 1   
    51   46   47 1   
    52   46   48 1   
    53   53   54 1   
    54   53   57 1   
    55   54   55 1   
    56   54   58 1   
    57   54   59 1   
    58   55   56 2   
    59   55   60 1   
    60   60   61 1   
    61   60   68 1   
    62   61   62 1   
    63   61   64 1   
    64   61   69 1   
    65   62   63 2   
    66   62   74 1   
    67   64   65 1   
    68   64   70 1   
    69   64   71 1   
    70   65   66 1   
    71   65   67 2   
    72   66   72 1   
    73   66   73 1   
    74   74   75 1   
    75   74   78 1   
    76   75   76 1   
    77   75   79 1   
    78   75   80 1   
    79   76   77 2   
    80   76   81 1   
    81   81   82 1   
    82   81   93 1   
    83   82   83 1   
    84   82   85 1   
    85   82   94 1   
    86   83   84 2   
    87   83  102 1   
    88   85   86 1   
    89   85   95 1   
    90   85   96 1   
    91   86   87 ar  
    92   86   88 ar  
    93   87   89 ar  
    94   87   97 1   
    95   88   90 ar  
    96   88   98 1   
    97   89   91 ar  
    98   89   99 1   
    99   90   91 ar  
   100   90  100 1   
   101   91   92 1   
   102   92  101 1   
   103  102  103 1   
   104  102  110 1   
   105  103  104 1   
   106  103  106 1   
   107  103  111 1   
   108  104  105 2   
   109  104  121 1   
   110  106  107 1   
   111  106  108 1   
   112  106  112 1   
   113  107  109 1   
   114  107  113 1   
   115  107  114 1   
   116  108  115 1   
   117  108  116 1   
   118  108  117 1   
   119  109  118 1   
   120  109  119 1   
   121  109  120 1   
   122  121  122 1   
   123  121  127 1   
   124  122  123 1   
   125  122  125 1   
   126  122  128 1   
   127  123  124 2   
   128  123  132 1   
   129  125  126 1   
   130  125  129 1   
   131  125  130 1   
   132  126  131 1   
   133  132  133 1   
   134  132  137 1   
   135  133  134 1   
   136  133  136 1   
   137  133  138 1   
   138  134  135 2   
   139  134  142 1   
   140  136  139 1   
   141  136  140 1   
   142  136  141 1   
   143  142  143 1   
   144  142  147 1   
   145  143  144 1   
   146  143  146 1   
   147  143  148 1   
   148  144  145 2   
   149  144  152 1   
   150  146  149 1   
   151  146  150 1   
   152  146  151 1   
   153  152  153 1   
   154  152  161 1   
   155  153  154 1   
   156  153  156 1   
   157  153  162 1   
   158  154  155 2   
   159  154  167 1   
   160  156  157 1   
   161  156  163 1   
   162  156  164 1   
   163  157  158 1   
   164  157  165 1   
   165  157  166 1   
   166  158  159 1   
   167  158  160 1   
   168  167  168 1   
   169  167  172 1   
   170  168  169 1   
   171  168  170 1   
   172  168  171 1   
   173  174  175 1   
   174  174  176 1   
   175  177  178 1   
   176  177  179 1   
@<TRIPOS>SUBSTRUCTURE
     1 MOL         1 TEMP              0 ****  ****    0 ROOT
