@<TRIPOS>MOLECULE
MOL
  189   185     1     0     0
SMALL
resp


@<TRIPOS>ATOM
      1 C1          0.3050    1.0040    6.2510 c3        1 MOL     -0.424230
      2 C2         -0.1850    1.2350    4.7900 c         1 MOL      0.810796
      3 O1          0.6930    1.5190    3.9910 o         1 MOL     -0.631786
      4 H1         -0.4770    0.5030    6.8200 hc        1 MOL      0.106637
      5 H2          1.2010    0.3830    6.2410 hc        1 MOL      0.106637
      6 H3          0.5340    1.9640    6.7130 hc        1 MOL      0.106637
      7 N1         -1.4820    1.1860    4.4880 n         1 MOL     -0.599504
      8 C3         -1.9230    1.3000    3.1080 c3        1 MOL      0.103836
      9 C4         -2.2240    2.7860    2.7650 c         1 MOL      0.259115
     10 O2         -2.9560    3.4300    3.4810 o         1 MOL     -0.491769
     11 C5         -3.1870    0.4850    2.8320 c3        1 MOL     -0.113980
     12 C6         -3.8370    0.7250    1.4240 c         1 MOL      0.610781
     13 O3         -3.6110   -0.0220    0.5110 o         1 MOL     -0.628723
     14 O4         -4.8400    1.5000    1.3160 o         1 MOL     -0.628723
     15 H4         -2.1870    1.0860    5.2040 hn        1 MOL      0.330186
     16 H5         -1.1740    0.9020    2.4290 h1        1 MOL      0.063960
     17 H6         -3.9770    0.6990    3.5610 hc        1 MOL      0.035889
     18 H7         -3.0110   -0.5760    2.9930 hc        1 MOL      0.035889
     19 N2         -1.7180    3.1920    1.6030 n         1 MOL     -0.030347
     20 C7         -1.6700    4.5750    1.1660 c3        1 MOL     -0.091636
     21 C8         -2.4720    4.9630   -0.0380 c         1 MOL      0.628813
     22 O5         -2.6950    6.1250   -0.2560 o         1 MOL     -0.582276
     23 C9         -0.2260    5.0110    0.9080 c3        1 MOL     -0.163516
     24 C10         0.8080    4.6590    2.0520 c3        1 MOL      0.222356
     25 C11         0.4160    5.2110    3.4000 c3        1 MOL     -0.176469
     26 C12         1.4960    4.9700    4.5140 c3        1 MOL      0.006297
     27 N3          0.9640    5.5910    5.7890 n4        1 MOL     -0.283921
     28 H8         -1.1010    2.5550    1.1130 hn        1 MOL      0.234123
     29 H9         -2.1040    5.1320    2.0070 h1        1 MOL      0.064320
     30 H10        -0.0900    6.0860    0.7610 hc        1 MOL      0.039415
     31 H11         0.0530    4.4800   -0.0080 hc        1 MOL      0.039415
     32 H12         1.7340    5.1380    1.7480 hc        1 MOL     -0.011084
     33 H13         0.8860    3.5710    2.0390 hc        1 MOL     -0.011084
     34 H14        -0.4660    4.7080    3.7790 hc        1 MOL      0.064091
     35 H15         0.2140    6.2780    3.3310 hc        1 MOL      0.064091
     36 H16         2.4410    5.3680    4.1540 hx        1 MOL      0.100031
     37 H17         1.6320    3.8990    4.6960 hx        1 MOL      0.100031
     38 H18         1.5930    6.1950    6.3000 hn        1 MOL      0.300170
     39 H19         0.1480    6.1780    5.6530 hn        1 MOL      0.300170
     40 H20         0.6880    4.8180    6.3810 hn        1 MOL      0.300170
     41 N4         -3.0870    4.0170   -0.8140 n         1 MOL     -0.400117
     42 C13        -3.8920    4.2690   -1.9990 c3        1 MOL      0.072057
     43 C14        -5.3330    3.6220   -1.9780 c         1 MOL      0.385249
     44 O6         -6.0860    3.7650   -2.9830 o         1 MOL     -0.549997
     45 C15        -3.1430    3.9020   -3.2980 c3        1 MOL     -0.213739
     46 C16        -2.3350    2.6040   -3.2640 c         1 MOL      0.874914
     47 O7         -1.3580    2.4040   -4.0730 o         1 MOL     -0.761155
     48 O8         -2.5210    1.7550   -2.3460 o         1 MOL     -0.761155
     49 H21        -2.8760    3.0310   -0.6830 hn        1 MOL      0.190410
     50 H22        -4.0810    5.3370   -1.8800 h1        1 MOL      0.091216
     51 H23        -2.3720    4.6490   -3.4960 hc        1 MOL      0.047782
     52 H24        -3.7670    3.8720   -4.1900 hc        1 MOL      0.047782
     53 N5         -5.7820    2.8960   -0.9670 n         1 MOL     -0.121063
     54 C17        -7.1480    2.5500   -0.8170 c3        1 MOL     -0.210742
     55 C18        -7.5210    1.0420   -1.1340 c         1 MOL      0.488808
     56 O9         -8.6800    0.6850   -0.8860 o         1 MOL     -0.559352
     57 H25        -5.2000    2.5100   -0.2420 hn        1 MOL      0.119596
     58 H26        -7.7690    3.2220   -1.4060 h1        1 MOL      0.118862
     59 H27        -7.4370    2.7810    0.2050 h1        1 MOL      0.118862
     60 N6         -6.6310    0.2230   -1.6790 n         1 MOL     -0.253666
     61 C19        -7.0080   -1.1320   -2.0300 c3        1 MOL      0.003453
     62 C20        -7.0490   -2.1740   -0.8940 c         1 MOL      0.398974
     63 O10        -7.7460   -3.1890   -0.9750 o         1 MOL     -0.529838
     64 C21        -5.9450   -1.6740   -3.0590 c3        1 MOL     -0.256206
     65 C22        -4.5030   -1.6170   -2.5890 c         1 MOL      0.779767
     66 O11        -3.7380   -0.8550   -3.2810 o         1 MOL     -0.735490
     67 O12        -4.0790   -2.0840   -1.5320 o         1 MOL     -0.735490
     68 H28        -5.6580    0.4960   -1.7580 hn        1 MOL      0.236172
     69 H29        -7.9960   -1.2190   -2.4820 h1        1 MOL      0.110274
     70 H30        -6.0910   -1.1450   -3.9990 hc        1 MOL      0.073097
     71 H31        -6.1660   -2.7190   -3.2870 hc        1 MOL      0.073097
     72 N7         -6.2910   -1.9020    0.1700 n         1 MOL     -0.201816
     73 C23        -6.3610   -2.6600    1.3890 c3        1 MOL      0.057504
     74 C24        -5.2860   -3.7670    1.4140 c         1 MOL      0.442217
     75 O13        -5.5370   -4.8400    1.9540 o         1 MOL     -0.555499
     76 H32        -5.6780   -1.1130    0.1730 hn        1 MOL      0.245463
     77 H33        -7.3460   -3.0510    1.6280 h1        1 MOL      0.040395
     78 H34        -6.2220   -1.9900    2.2330 h1        1 MOL      0.040395
     79 N8         -4.1020   -3.5400    0.8440 n         1 MOL     -0.036932
     80 C25        -2.9530   -4.4530    0.7820 c3        1 MOL     -0.567865
     81 C26        -1.6190   -3.7160    0.8200 c         1 MOL      1.044683
     82 O14        -1.4490   -2.7230    0.1460 o         1 MOL     -0.740070
     83 C27        -3.0050   -5.3700   -0.4150 c3        1 MOL      0.613029
     84 C28        -3.8890   -6.5880   -0.1600 c3        1 MOL     -0.604180
     85 O15        -3.4550   -4.6920   -1.5500 oh        1 MOL     -0.641862
     86 H35        -3.8840   -2.6550    0.4190 hn        1 MOL      0.077839
     87 H36        -2.9520   -5.1910    1.5820 h1        1 MOL      0.157061
     88 H37        -1.9960   -5.7150   -0.6650 h1        1 MOL     -0.039904
     89 H38        -3.8890   -3.9060   -1.2370 ho        1 MOL      0.423872
     90 H39        -3.9090   -7.0720   -1.1350 hc        1 MOL      0.154915
     91 H40        -3.3250   -7.1740    0.5680 hc        1 MOL      0.154915
     92 H41        -4.8970   -6.2710    0.0890 hc        1 MOL      0.154915
     93 N9         -0.6330   -4.1170    1.6270 n         1 MOL     -0.933365
     94 C29         0.6620   -3.3730    1.7240 c3        1 MOL      0.291915
     95 C30         1.6010   -3.8410    0.5750 c         1 MOL      0.440521
     96 O16         1.6230   -5.0460    0.2720 o         1 MOL     -0.519653
     97 C31         1.4360   -3.6130    3.0210 c3        1 MOL      0.081743
     98 C32         0.4670   -3.6730    4.1920 c3        1 MOL      0.080564
     99 C33         2.3350   -2.3950    3.3640 c3        1 MOL     -0.813504
    100 C34         1.1610   -4.0510    5.4710 c3        1 MOL      0.061531
    101 H42        -0.6720   -5.0660    1.9710 hn        1 MOL      0.388150
    102 H43         0.4630   -2.3120    1.5480 h1        1 MOL      0.083770
    103 H44         2.0400   -4.5140    2.9270 hc        1 MOL      0.021215
    104 H45        -0.3400   -4.3840    4.0580 hc        1 MOL     -0.010517
    105 H46         0.1080   -2.6810    4.4680 hc        1 MOL     -0.010517
    106 H47         2.9760   -2.5890    4.2310 hc        1 MOL      0.199098
    107 H48         2.9340   -2.1470    2.4980 hc        1 MOL      0.199098
    108 H49         1.7580   -1.4870    3.5720 hc        1 MOL      0.199098
    109 H50         2.0520   -3.5050    5.7870 hc        1 MOL     -0.016594
    110 H51         0.5560   -3.8530    6.3550 hc        1 MOL     -0.016594
    111 H52         1.3340   -5.1210    5.5570 hc        1 MOL     -0.016594
    112 N10         2.4470   -2.8660    0.0300 n         1 MOL     -0.153822
    113 C35         3.5010   -3.0540   -0.8960 c3        1 MOL     -0.025745
    114 C36         4.8040   -2.4920   -0.3320 c         1 MOL      0.150583
    115 O17         4.8600   -1.5740    0.4710 o         1 MOL     -0.205640
    116 C37         3.2080   -2.4180   -2.2330 c3        1 MOL      0.096913
    117 C38         1.9620   -2.9330   -2.9220 c3        1 MOL     -0.241838
    118 O18         3.0950   -1.0810   -2.0490 oh        1 MOL     -0.530190
    119 H53         2.2900   -1.8800    0.1250 hn        1 MOL      0.264312
    120 H54         3.5810   -4.1300   -0.9780 h1        1 MOL      0.046802
    121 H55         4.0610   -2.5710   -2.8900 h1        1 MOL      0.055930
    122 H56         2.2040   -0.8840   -1.7350 ho        1 MOL      0.325223
    123 H57         2.0830   -3.8670   -3.4670 hc        1 MOL      0.085239
    124 H58         1.1370   -3.0870   -2.2180 hc        1 MOL      0.085239
    125 H59         1.7840   -2.2970   -3.7880 hc        1 MOL      0.085239
    126 N11         5.9230   -2.9340   -0.9300 n         1 MOL     -0.049755
    127 C39         7.2580   -2.5420   -0.5430 c3        1 MOL     -0.332732
    128 C40         7.4570   -1.0000   -0.5410 c         1 MOL      0.532169
    129 O19         8.1800   -0.4160    0.3160 o         1 MOL     -0.507858
    130 C41         8.2270   -3.2850   -1.4020 c3        1 MOL      0.314960
    131 C42         7.9160   -4.7800   -1.5440 c3        1 MOL     -0.337778
    132 O20         8.0140   -2.8060   -2.6790 oh        1 MOL     -0.651157
    133 H60         5.7760   -3.5440   -1.7250 hn        1 MOL      0.220249
    134 H61         7.5030   -2.9350    0.4400 h1        1 MOL      0.153342
    135 H62         9.2290   -3.0770   -1.0490 h1        1 MOL      0.048689
    136 H63         8.8050   -3.0010   -3.1900 ho        1 MOL      0.419514
    137 H64         8.2070   -5.3480   -0.6570 hc        1 MOL      0.094753
    138 H65         6.8510   -5.0090   -1.5570 hc        1 MOL      0.094753
    139 H66         8.4540   -5.2270   -2.3780 hc        1 MOL      0.094753
    140 N12         6.8570   -0.3080   -1.4860 n         1 MOL     -0.287545
    141 C43         6.8150    1.1560   -1.7340 c3        1 MOL     -0.169500
    142 C44         6.2010    1.8490   -0.5400 c         1 MOL      0.411886
    143 O21         6.7460    2.8290   -0.0700 o         1 MOL     -0.518463
    144 C45         5.9540    1.2920   -3.0270 c3        1 MOL      0.046581
    145 C46         5.7960    2.7280   -3.6530 c3        1 MOL     -0.068817
    146 C47         4.8220    2.7140   -4.9030 c3        1 MOL     -0.052672
    147 C48         4.9200    4.0540   -5.6110 c3        1 MOL      0.084167
    148 N13         4.9170    5.3180   -4.8350 n4        1 MOL     -0.236031
    149 H67         6.2950   -0.8410   -2.1490 hn        1 MOL      0.241233
    150 H68         7.8190    1.5370   -1.9130 h1        1 MOL      0.144637
    151 H69         4.9640    0.9650   -2.7010 hc        1 MOL      0.027838
    152 H70         6.3260    0.5510   -3.7230 hc        1 MOL      0.027838
    153 H71         6.8350    2.9770   -3.8470 hc        1 MOL      0.017021
    154 H72         5.3950    3.3920   -2.8870 hc        1 MOL      0.017021
    155 H73         3.8020    2.5400   -4.5570 hc        1 MOL      0.070054
    156 H74         5.1120    1.9110   -5.5770 hc        1 MOL      0.070054
    157 H75         4.2830    4.1780   -6.4840 hx        1 MOL      0.060822
    158 H76         5.8910    3.9870   -6.0990 hx        1 MOL      0.060822
    159 H77         5.1050    6.1480   -5.3820 hn        1 MOL      0.295863
    160 H78         4.0760    5.4950   -4.2990 hn        1 MOL      0.295863
    161 H79         5.6970    5.4320   -4.2050 hn        1 MOL      0.295863
    162 N14         5.0710    1.3260   -0.0380 n         1 MOL     -0.040008
    163 C49         4.2820    1.8150    1.1160 c3        1 MOL     -0.217135
    164 C50         5.0530    1.4280    2.4680 c         1 MOL      0.467244
    165 O22         5.1080    2.1870    3.5060 o         1 MOL     -0.589615
    166 C51         2.8620    1.2340    1.0260 c3        1 MOL      0.054402
    167 C52         1.8830    1.6690   -0.0490 c3        1 MOL     -0.025908
    168 C53         0.6890    0.7680   -0.2760 c         1 MOL      0.810672
    169 O23        -0.4680    1.1630   -0.0320 o         1 MOL     -0.796485
    170 O24         0.8370   -0.3780   -0.7180 o         1 MOL     -0.796485
    171 H80         4.7430    0.5080   -0.5420 hn        1 MOL      0.182184
    172 H81         4.2350    2.8980    1.0290 h1        1 MOL      0.092229
    173 H82         2.3800    1.4620    1.9820 hc        1 MOL     -0.004637
    174 H83         3.0040    0.1490    1.0180 hc        1 MOL     -0.004637
    175 H84         2.4670    1.6350   -0.9660 hc        1 MOL     -0.029595
    176 H85         1.6780    2.7280    0.0820 hc        1 MOL     -0.029595
    177 N15         5.5930    0.2200    2.5640 n         1 MOL     -0.070836
    178 C54         6.5020   -0.2240    3.6280 c3        1 MOL     -0.280893
    179 H86         5.9330   -0.7520    4.3940 h1        1 MOL      0.114052
    180 H87         7.2540   -0.8930    3.2090 h1        1 MOL      0.114052
    181 H88         6.9930    0.6420    4.0730 h1        1 MOL      0.114052
    182 H89         5.4080   -0.3480    1.7490 hn        1 MOL      0.072975
    183 Ca1        -1.8570   -0.5630   -1.4440 Ca        1 MOL      1.778290
    184 O25        -0.4840   -0.0130   -3.6200 oh        1 MOL     -0.831516
    185 H90         0.2970   -0.0500   -4.1680 ho        1 MOL      0.386604
    186 H91        -0.8410    0.8670   -3.7620 ho        1 MOL      0.386604
    187 O26        -1.4960   -2.8400   -2.8950 oh        1 MOL     -0.831516
    188 H92        -0.7600   -3.0180   -3.4760 ho        1 MOL      0.386604
    189 H93        -1.9470   -3.6900   -2.8230 ho        1 MOL      0.386604
@<TRIPOS>BOND
     1    1    2 1   
     2    1    4 1   
     3    1    5 1   
     4    1    6 1   
     5    2    3 2   
     6    2    7 1   
     7    7    8 1   
     8    7   15 1   
     9    8    9 1   
    10    8   11 1   
    11    8   16 1   
    12    9   10 2   
    13    9   19 1   
    14   11   12 1   
    15   11   17 1   
    16   11   18 1   
    17   12   13 1   
    18   12   14 1   
    19   19   20 1   
    20   19   28 1   
    21   20   21 1   
    22   20   23 1   
    23   20   29 1   
    24   21   22 2   
    25   21   41 1   
    26   23   24 1   
    27   23   30 1   
    28   23   31 1   
    29   24   25 1   
    30   24   32 1   
    31   24   33 1   
    32   25   26 1   
    33   25   34 1   
    34   25   35 1   
    35   26   27 1   
    36   26   36 1   
    37   26   37 1   
    38   27   38 1   
    39   27   39 1   
    40   27   40 1   
    41   41   42 1   
    42   41   49 1   
    43   42   43 1   
    44   42   45 1   
    45   42   50 1   
    46   43   44 2   
    47   43   53 1   
    48   45   46 1   
    49   45   51 1   
    50   45   52 1   
    51   46   47 1   
    52   46   48 1   
    53   53   54 1   
    54   53   57 1   
    55   54   55 1   
    56   54   58 1   
    57   54   59 1   
    58   55   56 2   
    59   55   60 1   
    60   60   61 1   
    61   60   68 1   
    62   61   62 1   
    63   61   64 1   
    64   61   69 1   
    65   62   63 2   
    66   62   72 1   
    67   64   65 1   
    68   64   70 1   
    69   64   71 1   
    70   65   66 1   
    71   65   67 1   
    72   72   73 1   
    73   72   76 1   
    74   73   74 1   
    75   73   77 1   
    76   73   78 1   
    77   74   75 2   
    78   74   79 1   
    79   79   80 1   
    80   79   86 1   
    81   80   81 1   
    82   80   83 1   
    83   80   87 1   
    84   81   82 2   
    85   81   93 1   
    86   83   84 1   
    87   83   85 1   
    88   83   88 1   
    89   84   90 1   
    90   84   91 1   
    91   84   92 1   
    92   85   89 1   
    93   93   94 1   
    94   93  101 1   
    95   94   95 1   
    96   94   97 1   
    97   94  102 1   
    98   95   96 2   
    99   95  112 1   
   100   97   98 1   
   101   97   99 1   
   102   97  103 1   
   103   98  100 1   
   104   98  104 1   
   105   98  105 1   
   106   99  106 1   
   107   99  107 1   
   108   99  108 1   
   109  100  109 1   
   110  100  110 1   
   111  100  111 1   
   112  112  113 1   
   113  112  119 1   
   114  113  114 1   
   115  113  116 1   
   116  113  120 1   
   117  114  115 2   
   118  114  126 1   
   119  116  117 1   
   120  116  118 1   
   121  116  121 1   
   122  117  123 1   
   123  117  124 1   
   124  117  125 1   
   125  118  122 1   
   126  126  127 1   
   127  126  133 1   
   128  127  128 1   
   129  127  130 1   
   130  127  134 1   
   131  128  129 2   
   132  128  140 1   
   133  130  131 1   
   134  130  132 1   
   135  130  135 1   
   136  131  137 1   
   137  131  138 1   
   138  131  139 1   
   139  132  136 1   
   140  140  141 1   
   141  140  149 1   
   142  141  142 1   
   143  141  144 1   
   144  141  150 1   
   145  142  143 2   
   146  142  162 1   
   147  144  145 1   
   148  144  151 1   
   149  144  152 1   
   150  145  146 1   
   151  145  153 1   
   152  145  154 1   
   153  146  147 1   
   154  146  155 1   
   155  146  156 1   
   156  147  148 1   
   157  147  157 1   
   158  147  158 1   
   159  148  159 1   
   160  148  160 1   
   161  148  161 1   
   162  162  163 1   
   163  162  171 1   
   164  163  164 1   
   165  163  166 1   
   166  163  172 1   
   167  164  165 2   
   168  164  177 1   
   169  166  167 1   
   170  166  173 1   
   171  166  174 1   
   172  167  168 1   
   173  167  175 1   
   174  167  176 1   
   175  168  169 1   
   176  168  170 1   
   177  177  178 1   
   178  177  182 1   
   179  178  179 1   
   180  178  180 1   
   181  178  181 1   
   182  184  185 1   
   183  184  186 1   
   184  187  188 1   
   185  187  189 1   
@<TRIPOS>SUBSTRUCTURE
     1 MOL         1 TEMP              0 ****  ****    0 ROOT
