@<TRIPOS>MOLECULE
MOL
  179   176     1     0     0
SMALL
resp


@<TRIPOS>ATOM
      1 C1          2.3550    0.8550    5.6010 c3        1 MOL     -0.438127
      2 C2          1.6620    1.2710    4.2540 c         1 MOL      0.728826
      3 O1          2.4410    1.3810    3.2970 o         1 MOL     -0.568876
      4 H1          2.0370    1.5280    6.3960 hc        1 MOL      0.116217
      5 H2          2.0700   -0.1660    5.8570 hc        1 MOL      0.116217
      6 H3          3.4370    0.9130    5.4870 hc        1 MOL      0.116217
      7 N1          0.3490    1.6490    4.2300 n         1 MOL     -0.678704
      8 C3         -0.3950    1.8690    2.9840 c3        1 MOL      0.512320
      9 C4         -0.0570    3.3090    2.5170 c         1 MOL      0.384488
     10 O2         -0.6570    4.2270    3.0660 o         1 MOL     -0.525662
     11 C5         -1.8370    1.5590    3.1760 c3        1 MOL     -0.398442
     12 C6         -2.8120    1.7470    1.9550 c         1 MOL      0.937231
     13 O3         -2.3340    1.9060    0.8200 o         1 MOL     -0.706388
     14 O4         -4.0070    1.6590    2.1830 o         1 MOL     -0.706388
     15 H4         -0.0730    1.6590    5.1440 hn        1 MOL      0.327902
     16 H5         -0.0890    1.1250    2.2530 h1        1 MOL     -0.088880
     17 H6         -2.1900    2.2560    3.9270 hc        1 MOL      0.074235
     18 H7         -1.9550    0.5000    3.4320 hc        1 MOL      0.074235
     19 N2          0.7550    3.4960    1.4890 n         1 MOL     -0.097593
     20 C7          1.3650    4.7960    1.0960 c3        1 MOL     -0.068367
     21 C8          0.3690    5.7100    0.3800 c         1 MOL      0.435391
     22 O5          0.2680    6.9210    0.5700 o         1 MOL     -0.558745
     23 C9          2.5820    4.5860    0.2400 c3        1 MOL      0.045215
     24 C10         3.4830    5.8330    0.3440 c3        1 MOL     -0.401127
     25 C11         4.5560    5.9100   -0.7320 c3        1 MOL      0.206265
     26 C12         5.4960    7.1530   -0.7390 c3        1 MOL     -0.007173
     27 N3          6.3150    7.1780   -1.9460 n4        1 MOL     -0.218786
     28 H8          1.1010    2.6830    0.9890 hn        1 MOL     -0.053811
     29 H9          1.6200    5.2780    2.0380 h1        1 MOL      0.075572
     30 H10         2.2680    4.2930   -0.7520 hc        1 MOL      0.086185
     31 H11         3.1410    3.7520    0.6640 hc        1 MOL      0.086185
     32 H12         4.0860    5.6680    1.2280 hc        1 MOL      0.134409
     33 H13         2.9020    6.7570    0.2710 hc        1 MOL      0.134409
     34 H14         3.9980    5.8930   -1.6650 hc        1 MOL     -0.033907
     35 H15         5.1810    5.0270   -0.6710 hc        1 MOL     -0.033907
     36 H16         6.0630    7.0310    0.1770 hx        1 MOL      0.078502
     37 H17         4.8430    8.0190   -0.6730 hx        1 MOL      0.078502
     38 H18         6.9070    6.3670   -2.0380 hn        1 MOL      0.291402
     39 H19         5.8040    7.1290   -2.8270 hn        1 MOL      0.291402
     40 H20         6.9490    7.9580   -1.9280 hn        1 MOL      0.291402
     41 N4         -0.4850    5.1210   -0.4900 n         1 MOL     -0.085879
     42 C13        -1.4260    5.7770   -1.3170 c3        1 MOL     -0.044602
     43 C14        -2.8390    5.6490   -0.8090 c         1 MOL      0.485947
     44 O6         -3.6180    6.4210   -1.2990 o         1 MOL     -0.547875
     45 C15        -1.1020    5.3550   -2.7640 c3        1 MOL     -0.079741
     46 C16        -1.1310    3.7890   -3.0570 c         1 MOL      0.675696
     47 O7         -0.8100    3.3310   -4.2130 o         1 MOL     -0.699529
     48 O8         -1.4310    2.9910   -2.0880 o         1 MOL     -0.699529
     49 H21        -0.3630    4.1450   -0.7060 hn        1 MOL      0.112897
     50 H22        -1.2400    6.8490   -1.2860 h1        1 MOL      0.080558
     51 H23        -0.1150    5.7640   -2.9880 hc        1 MOL      0.017896
     52 H24        -1.7770    5.8670   -3.4540 hc        1 MOL      0.017896
     53 N5         -3.1000    4.8150    0.1490 n         1 MOL     -0.043459
     54 C17        -4.3900    4.7290    0.8390 c3        1 MOL     -0.195605
     55 C18        -5.4270    4.0030   -0.0430 c         1 MOL      0.578344
     56 O9         -6.3310    4.6080   -0.6130 o         1 MOL     -0.537997
     57 H25        -2.3740    4.1820    0.4480 hn        1 MOL      0.021063
     58 H26        -4.7670    5.7470    0.9780 h1        1 MOL      0.095961
     59 H27        -4.2700    4.2470    1.8130 h1        1 MOL      0.095961
     60 N6         -5.2190    2.6740   -0.2110 n         1 MOL     -0.340019
     61 C19        -6.1630    1.7660   -0.9920 c3        1 MOL      0.216334
     62 C20        -6.7840    0.6150   -0.1070 c         1 MOL      0.312887
     63 O10        -7.7750    0.0170   -0.4870 o         1 MOL     -0.475397
     64 C21        -5.5440    1.2970   -2.3300 c3        1 MOL     -0.251919
     65 C22        -4.7460   -0.0240   -2.1510 c         1 MOL      0.256904
     66 N7         -5.2400   -1.0580   -2.7010 n         1 MOL     -0.364649
     67 O11        -3.6860   -0.1600   -1.4940 o         1 MOL     -0.469355
     68 H28        -4.3700    2.2160    0.1180 hn        1 MOL      0.048888
     69 H29        -6.9790    2.4210   -1.2890 h1        1 MOL      0.062094
     70 H30        -4.9490    2.0730   -2.8030 hc        1 MOL      0.121202
     71 H31        -6.4360    1.0460   -2.8980 hc        1 MOL      0.121202
     72 H32        -6.0660   -0.9380   -3.2680 hn        1 MOL      0.282272
     73 H33        -4.6610   -1.8790   -2.8500 hn        1 MOL      0.282272
     74 N8         -6.1300    0.2980    1.0660 n         1 MOL     -0.230022
     75 C23        -6.4970   -0.8170    1.9690 c3        1 MOL     -0.015373
     76 C24        -5.5140   -1.9630    1.8840 c         1 MOL      0.411584
     77 O12        -5.6090   -2.9140    2.6400 o         1 MOL     -0.563935
     78 H34        -5.2360    0.7300    1.2690 hn        1 MOL      0.223385
     79 H35        -7.4350   -1.2030    1.5720 h1        1 MOL      0.081236
     80 H36        -6.6870   -0.5360    2.9940 h1        1 MOL      0.081236
     81 N9         -4.5300   -1.9580    0.9260 n         1 MOL      0.158153
     82 C25        -3.5760   -3.0730    0.8390 c3        1 MOL      0.001307
     83 C26        -2.1170   -2.5330    0.9810 c         1 MOL      0.285376
     84 O13        -1.9150   -1.3100    0.7400 o         1 MOL     -0.487842
     85 C27        -3.8450   -3.8110   -0.5440 c3        1 MOL      0.109394
     86 C28        -5.1820   -4.5170   -0.7820 ca        1 MOL      0.147064
     87 C29        -6.3670   -3.7450   -1.0510 ca        1 MOL     -0.352500
     88 C30        -5.1540   -5.8660   -0.9160 ca        1 MOL     -0.352500
     89 C31        -7.5500   -4.3870   -1.2410 ca        1 MOL     -0.051411
     90 C32        -6.3700   -6.5150   -1.1850 ca        1 MOL     -0.051411
     91 C33        -7.5950   -5.8250   -1.3050 ca        1 MOL      0.158621
     92 O14        -8.7810   -6.4260   -1.4750 oh        1 MOL     -0.440745
     93 H37        -4.3620   -1.0680    0.4790 hn        1 MOL     -0.064465
     94 H38        -3.7890   -3.7660    1.6460 h1        1 MOL      0.053963
     95 H39        -3.0510   -4.5270   -0.7480 hc        1 MOL     -0.037921
     96 H40        -3.8000   -3.1200   -1.3810 hc        1 MOL     -0.037921
     97 H41        -6.4300   -2.6720   -0.9890 ha        1 MOL      0.167151
     98 H42        -4.2320   -6.4090   -0.8640 ha        1 MOL      0.167151
     99 H43        -8.4340   -3.8950   -1.6150 ha        1 MOL      0.090217
    100 H44        -6.2910   -7.5720   -1.3660 ha        1 MOL      0.090217
    101 H45        -8.8560   -7.3650   -1.6590 ho        1 MOL      0.366545
    102 N10        -1.2050   -3.4200    1.4520 n         1 MOL     -0.389376
    103 C34         0.2610   -3.2480    1.5470 c3        1 MOL     -0.013183
    104 C35         0.9010   -3.8860    0.2850 c         1 MOL      0.504380
    105 O15         0.6600   -5.0740    0.0130 o         1 MOL     -0.555549
    106 C36         0.9550   -3.9120    2.8370 c3        1 MOL      0.123597
    107 C37         0.0460   -3.7320    4.1200 c3        1 MOL      0.260671
    108 C38         2.3470   -3.2180    2.9940 c3        1 MOL     -0.268100
    109 C39         0.5400   -4.3410    5.4560 c3        1 MOL     -0.446159
    110 H46        -1.5540   -4.3370    1.6990 hn        1 MOL      0.291983
    111 H47         0.5380   -2.1990    1.5620 h1        1 MOL      0.160903
    112 H48         1.0900   -4.9580    2.5660 hc        1 MOL     -0.013430
    113 H49        -0.9080   -4.2130    3.9160 hc        1 MOL     -0.047220
    114 H50        -0.0860   -2.6550    4.2340 hc        1 MOL     -0.047220
    115 H51         2.9240   -3.3860    2.0910 hc        1 MOL      0.038090
    116 H52         2.2030   -2.1360    2.9800 hc        1 MOL      0.038090
    117 H53         2.8910   -3.5190    3.8850 hc        1 MOL      0.038090
    118 H54         0.6160   -5.4040    5.2530 hc        1 MOL      0.114227
    119 H55         1.5030   -3.8640    5.6460 hc        1 MOL      0.114227
    120 H56        -0.2530   -4.0690    6.1530 hc        1 MOL      0.114227
    121 N11         1.7320   -3.0810   -0.4820 n         1 MOL     -0.188073
    122 C40         2.6020   -3.5660   -1.6380 c3        1 MOL      0.111224
    123 C41         4.0200   -3.7910   -1.1450 c         1 MOL      0.314244
    124 O16         4.4360   -3.1050   -0.2150 o         1 MOL     -0.244438
    125 C42         2.4900   -2.6840   -2.8980 c3        1 MOL      0.305127
    126 O17         1.3710   -3.0500   -3.6520 oh        1 MOL     -0.651797
    127 H57         1.9120   -2.1400   -0.1570 hn        1 MOL      0.112204
    128 H58         2.1890   -4.5390   -1.9090 h1        1 MOL      0.044487
    129 H59         3.4060   -2.8750   -3.4650 h1        1 MOL     -0.042289
    130 H60         2.4450   -1.6210   -2.6660 h1        1 MOL     -0.042289
    131 H61         1.4510   -2.6470   -4.5220 ho        1 MOL      0.410967
    132 N12         4.7840   -4.6900   -1.8350 n         1 MOL     -0.492663
    133 C43         6.1610   -4.9090   -1.3590 c3        1 MOL      0.168794
    134 C44         7.0680   -3.6740   -1.4600 c         1 MOL      0.377317
    135 O18         7.9810   -3.5290   -0.6470 o         1 MOL     -0.493363
    136 C45         6.8180   -6.1830   -1.9740 c3        1 MOL     -0.359927
    137 H62         4.4990   -5.0690   -2.7320 hn        1 MOL      0.316263
    138 H63         5.9850   -5.0810   -0.2940 h1        1 MOL      0.085069
    139 H64         6.0820   -6.9660   -2.1740 hc        1 MOL      0.114610
    140 H65         7.2550   -5.9310   -2.9360 hc        1 MOL      0.114610
    141 H66         7.5600   -6.5380   -1.2560 hc        1 MOL      0.114610
    142 N13         6.8100   -2.7250   -2.3540 n         1 MOL     -0.277207
    143 C46         7.5060   -1.4530   -2.3600 c3        1 MOL      0.071983
    144 C47         7.2680   -0.6230   -1.0970 c         1 MOL      0.372940
    145 O19         8.1660    0.0300   -0.5880 o         1 MOL     -0.485510
    146 C48         7.1610   -0.7450   -3.6480 c3        1 MOL     -0.305908
    147 H67         6.3370   -3.1110   -3.1530 hn        1 MOL      0.229150
    148 H68         8.5780   -1.6430   -2.3520 h1        1 MOL      0.087199
    149 H69         7.6290    0.2390   -3.6370 hc        1 MOL      0.086804
    150 H70         7.5670   -1.2870   -4.5070 hc        1 MOL      0.086804
    151 H71         6.0810   -0.7170   -3.7870 hc        1 MOL      0.086804
    152 N14         6.0050   -0.6990   -0.5970 n         1 MOL     -0.023277
    153 C49         5.4690    0.0440    0.5830 c3        1 MOL     -0.370888
    154 C50         6.0830   -0.5300    1.9100 c         1 MOL      0.531059
    155 O20         6.4740    0.2310    2.7800 o         1 MOL     -0.539622
    156 C51         3.9010    0.0360    0.5780 c3        1 MOL      0.262864
    157 C52         3.3050    0.6580   -0.6430 c3        1 MOL      0.019684
    158 C53         1.7380    0.7520   -0.5310 c         1 MOL      0.707660
    159 O21         1.0360   -0.1990   -0.1510 o         1 MOL     -0.660845
    160 O22         1.2260    1.8550   -0.7820 o         1 MOL     -0.660845
    161 H72         5.3350   -1.3340   -1.0170 hn        1 MOL      0.063055
    162 H73         5.7630    1.1010    0.5560 h1        1 MOL      0.144751
    163 H74         3.7250    0.6350    1.4740 hc        1 MOL     -0.020593
    164 H75         3.4980   -0.9410    0.8310 hc        1 MOL     -0.020593
    165 H76         3.6840    0.0660   -1.4730 hc        1 MOL     -0.068455
    166 H77         3.7070    1.6350   -0.8820 hc        1 MOL     -0.068455
    167 N15         6.1390   -1.8460    1.9460 n         1 MOL     -0.113846
    168 C54         6.8830   -2.5670    3.0560 c3        1 MOL     -0.343846
    169 H78         6.6340   -2.1120    4.0150 h1        1 MOL      0.135360
    170 H79         6.5910   -3.6170    3.0660 h1        1 MOL      0.135360
    171 H80         7.9570   -2.4890    2.8860 h1        1 MOL      0.135360
    172 H81         5.7800   -2.3380    1.1410 hn        1 MOL      0.117696
    173 Ca1        -1.1870    0.7140   -1.1750 Ca        1 MOL      1.697290
    174 O23         0.2080    0.4680   -3.3880 oh        1 MOL     -0.921676
    175 H82         0.4720    1.2300   -3.8980 ho        1 MOL      0.435842
    176 H83         0.0730   -0.2260   -4.0280 ho        1 MOL      0.435842
    177 O24        -1.1740   -1.8260   -2.1920 oh        1 MOL     -0.921676
    178 H84        -0.4620   -2.2700   -2.6420 ho        1 MOL      0.435842
    179 H85        -1.8890   -2.4540   -2.1900 ho        1 MOL      0.435842
@<TRIPOS>BOND
     1    1    2 1   
     2    1    4 1   
     3    1    5 1   
     4    1    6 1   
     5    2    3 2   
     6    2    7 1   
     7    7    8 1   
     8    7   15 1   
     9    8    9 1   
    10    8   11 1   
    11    8   16 1   
    12    9   10 2   
    13    9   19 1   
    14   11   12 1   
    15   11   17 1   
    16   11   18 1   
    17   12   13 1   
    18   12   14 1   
    19   19   20 1   
    20   19   28 1   
    21   20   21 1   
    22   20   23 1   
    23   20   29 1   
    24   21   22 2   
    25   21   41 1   
    26   23   24 1   
    27   23   30 1   
    28   23   31 1   
    29   24   25 1   
    30   24   32 1   
    31   24   33 1   
    32   25   26 1   
    33   25   34 1   
    34   25   35 1   
    35   26   27 1   
    36   26   36 1   
    37   26   37 1   
    38   27   38 1   
    39   27   39 1   
    40   27   40 1   
    41   41   42 1   
    42   41   49 1   
    43   42   43 1   
    44   42   45 1   
    45   42   50 1   
    46   43   44 2   
    47   43   53 1   
    48   45   46 1   
    49   45   51 1   
    50   45   52 1   
    51   46   47 1   
    52   46   48 1   
    53   53   54 1   
    54   53   57 1   
    55   54   55 1   
    56   54   58 1   
    57   54   59 1   
    58   55   56 2   
    59   55   60 1   
    60   60   61 1   
    61   60   68 1   
    62   61   62 1   
    63   61   64 1   
    64   61   69 1   
    65   62   63 2   
    66   62   74 1   
    67   64   65 1   
    68   64   70 1   
    69   64   71 1   
    70   65   66 1   
    71   65   67 2   
    72   66   72 1   
    73   66   73 1   
    74   74   75 1   
    75   74   78 1   
    76   75   76 1   
    77   75   79 1   
    78   75   80 1   
    79   76   77 2   
    80   76   81 1   
    81   81   82 1   
    82   81   93 1   
    83   82   83 1   
    84   82   85 1   
    85   82   94 1   
    86   83   84 2   
    87   83  102 1   
    88   85   86 1   
    89   85   95 1   
    90   85   96 1   
    91   86   87 ar  
    92   86   88 ar  
    93   87   89 ar  
    94   87   97 1   
    95   88   90 ar  
    96   88   98 1   
    97   89   91 ar  
    98   89   99 1   
    99   90   91 ar  
   100   90  100 1   
   101   91   92 1   
   102   92  101 1   
   103  102  103 1   
   104  102  110 1   
   105  103  104 1   
   106  103  106 1   
   107  103  111 1   
   108  104  105 2   
   109  104  121 1   
   110  106  107 1   
   111  106  108 1   
   112  106  112 1   
   113  107  109 1   
   114  107  113 1   
   115  107  114 1   
   116  108  115 1   
   117  108  116 1   
   118  108  117 1   
   119  109  118 1   
   120  109  119 1   
   121  109  120 1   
   122  121  122 1   
   123  121  127 1   
   124  122  123 1   
   125  122  125 1   
   126  122  128 1   
   127  123  124 2   
   128  123  132 1   
   129  125  126 1   
   130  125  129 1   
   131  125  130 1   
   132  126  131 1   
   133  132  133 1   
   134  132  137 1   
   135  133  134 1   
   136  133  136 1   
   137  133  138 1   
   138  134  135 2   
   139  134  142 1   
   140  136  139 1   
   141  136  140 1   
   142  136  141 1   
   143  142  143 1   
   144  142  147 1   
   145  143  144 1   
   146  143  146 1   
   147  143  148 1   
   148  144  145 2   
   149  144  152 1   
   150  146  149 1   
   151  146  150 1   
   152  146  151 1   
   153  152  153 1   
   154  152  161 1   
   155  153  154 1   
   156  153  156 1   
   157  153  162 1   
   158  154  155 2   
   159  154  167 1   
   160  156  157 1   
   161  156  163 1   
   162  156  164 1   
   163  157  158 1   
   164  157  165 1   
   165  157  166 1   
   166  158  159 1   
   167  158  160 1   
   168  167  168 1   
   169  167  172 1   
   170  168  169 1   
   171  168  170 1   
   172  168  171 1   
   173  174  175 1   
   174  174  176 1   
   175  177  178 1   
   176  177  179 1   
@<TRIPOS>SUBSTRUCTURE
     1 MOL         1 TEMP              0 ****  ****    0 ROOT
