@<TRIPOS>MOLECULE
MOL
  175   173     1     0     0
SMALL
resp


@<TRIPOS>ATOM
      1 C1          0.2480    3.6760    5.5520 c3        1 MOL     -0.362108
      2 C2         -0.3810    3.6440    4.1220 c         1 MOL      0.664773
      3 O1          0.2880    3.9860    3.1130 o         1 MOL     -0.544978
      4 H1         -0.1300    4.5430    6.0950 hc        1 MOL      0.090963
      5 H2         -0.0220    2.7670    6.0880 hc        1 MOL      0.090963
      6 H3          1.3330    3.7430    5.4710 hc        1 MOL      0.090963
      7 N1         -1.6450    3.3760    3.9500 n         1 MOL     -0.556251
      8 C3         -2.2820    3.3340    2.6500 c3        1 MOL      0.248523
      9 C4         -2.4420    4.6560    1.8070 c         1 MOL      0.625261
     10 O2         -2.3940    5.7240    2.3950 o         1 MOL     -0.581696
     11 C5         -3.6290    2.6730    2.7960 c3        1 MOL     -0.497228
     12 C6         -4.3900    2.4750    1.4970 c         1 MOL      0.890217
     13 O3         -5.4610    2.9720    1.4570 o         1 MOL     -0.674095
     14 O4         -3.8060    1.8470    0.5990 o         1 MOL     -0.674095
     15 H4         -2.2110    3.1480    4.7570 hn        1 MOL      0.301764
     16 H5         -1.6090    2.7740    1.9980 h1        1 MOL     -0.096333
     17 H6         -4.2770    3.1940    3.5090 hc        1 MOL      0.073353
     18 H7         -3.5830    1.6610    3.2190 hc        1 MOL      0.073353
     19 N2         -2.4320    4.5030    0.5130 n         1 MOL     -0.467325
     20 C7         -2.6780    5.5250   -0.4370 c3        1 MOL      0.082982
     21 C8         -3.2190    5.0570   -1.7750 c         1 MOL      0.558038
     22 O5         -3.0550    5.7310   -2.8190 o         1 MOL     -0.583639
     23 C9         -1.3440    6.3030   -0.6260 c3        1 MOL     -0.143016
     24 H8         -2.1260    3.6030    0.1660 hn        1 MOL      0.402331
     25 H9         -3.3780    6.2920   -0.1000 h1        1 MOL      0.058834
     26 H10        -1.5040    7.1800   -1.2630 hc        1 MOL      0.033929
     27 H11        -0.9850    6.7120    0.3180 hc        1 MOL      0.033929
     28 H12        -0.5010    5.7080   -1.0010 hc        1 MOL      0.033929
     29 N3         -3.9420    3.9600   -1.8320 n         1 MOL     -0.358450
     30 C10        -4.6440    3.5240   -3.0130 c3        1 MOL     -0.001838
     31 C11        -5.8930    2.7020   -2.7100 c         1 MOL      0.452906
     32 O6         -6.6710    2.5020   -3.5870 o         1 MOL     -0.552514
     33 C12        -3.6220    2.5270   -3.7080 c3        1 MOL     -0.236006
     34 C13        -3.0250    1.5000   -2.7850 c         1 MOL      0.740587
     35 O7         -3.7020    0.7580   -2.0840 o         1 MOL     -0.708919
     36 O8         -1.7910    1.4200   -2.7240 o         1 MOL     -0.708919
     37 H13        -3.9140    3.3650   -1.0150 hn        1 MOL      0.182938
     38 H14        -4.8700    4.4110   -3.5930 h1        1 MOL      0.107107
     39 H15        -2.7790    3.0540   -4.1550 hc        1 MOL      0.066079
     40 H16        -4.1450    1.9330   -4.4600 hc        1 MOL      0.066079
     41 N4         -6.1250    2.2970   -1.4560 n         1 MOL     -0.123833
     42 C14        -7.2220    1.4170   -1.0010 c3        1 MOL     -0.340283
     43 C15        -7.2230   -0.0730   -1.3950 c         1 MOL      0.571349
     44 O9         -8.2670   -0.7340   -1.3240 o         1 MOL     -0.620712
     45 H17        -5.3220    2.4380   -0.8630 hn        1 MOL      0.030762
     46 H18        -8.1470    1.8220   -1.4140 h1        1 MOL      0.151246
     47 H19        -7.2200    1.5720    0.0770 h1        1 MOL      0.151246
     48 N5         -6.1010   -0.6860   -1.7950 n         1 MOL     -0.239296
     49 C16        -6.1010   -2.1280   -2.2370 c3        1 MOL     -0.013554
     50 C17        -6.2320   -3.3070   -1.1870 c         1 MOL      0.410931
     51 O10        -6.3120   -4.5100   -1.5570 o         1 MOL     -0.514124
     52 C18        -4.9580   -2.3290   -3.1640 c3        1 MOL     -0.224952
     53 C19        -3.5660   -2.2020   -2.5540 c         1 MOL      0.778507
     54 N6         -2.4570   -2.1910   -3.2810 n         1 MOL     -0.721936
     55 O11        -3.4860   -2.1660   -1.3390 o         1 MOL     -0.775290
     56 H20        -5.3050   -0.1360   -2.0620 hn        1 MOL      0.254126
     57 H21        -7.0230   -2.2900   -2.7800 h1        1 MOL      0.099500
     58 H22        -5.0670   -1.7060   -4.0560 hc        1 MOL      0.063508
     59 H23        -5.0030   -3.3460   -3.5430 hc        1 MOL      0.063508
     60 H24        -2.3990   -2.4390   -4.2640 hn        1 MOL      0.341637
     61 H25        -1.5780   -1.9970   -2.8250 hn        1 MOL      0.341637
     62 N7         -6.0960   -2.9490    0.1170 n         1 MOL     -0.195908
     63 C20        -6.2170   -3.8690    1.2620 c3        1 MOL     -0.267942
     64 C21        -4.8440   -4.4260    1.7750 c         1 MOL      0.601320
     65 O12        -4.7960   -5.1050    2.7550 o         1 MOL     -0.599340
     66 H26        -6.0260   -1.9680    0.3430 hn        1 MOL      0.238563
     67 H27        -6.8050   -4.7020    0.8840 h1        1 MOL      0.114002
     68 H28        -6.6460   -3.3520    2.1220 h1        1 MOL      0.114002
     69 N8         -3.7360   -3.9800    1.1820 n         1 MOL     -0.358640
     70 C22        -2.3960   -4.5470    1.4070 c3        1 MOL     -0.008005
     71 C23        -1.3250   -3.4430    1.4280 c         1 MOL      0.317724
     72 O13        -1.4580   -2.4330    0.7150 o         1 MOL     -0.313748
     73 C24        -2.0420   -5.4500    0.1990 c3        1 MOL      0.317257
     74 C25        -2.6730   -6.8380    0.2840 c3        1 MOL     -0.316636
     75 O14        -2.3070   -4.8730   -1.1670 oh        1 MOL     -0.566571
     76 H29        -3.8070   -3.3230    0.4100 hn        1 MOL      0.400525
     77 H30        -2.3840   -5.1080    2.3410 h1        1 MOL      0.071944
     78 H31        -0.9740   -5.6630    0.3000 h1        1 MOL      0.013179
     79 H32        -2.0220   -3.9550   -1.2280 ho        1 MOL      0.312073
     80 H33        -2.0920   -7.5260    0.8960 hc        1 MOL      0.083116
     81 H34        -3.7190   -6.8080    0.6110 hc        1 MOL      0.083116
     82 H35        -2.8020   -7.3260   -0.6870 hc        1 MOL      0.083116
     83 N9         -0.3800   -3.6230    2.3020 n         1 MOL     -0.413496
     84 C26         0.8130   -2.7970    2.2440 c3        1 MOL     -0.064395
     85 C27         1.6410   -3.1980    1.0250 c         1 MOL      0.579466
     86 O15         1.9380   -4.3700    0.8050 o         1 MOL     -0.595095
     87 C28         1.6600   -2.6990    3.5520 c3        1 MOL      0.070860
     88 C29         0.7760   -2.1490    4.6400 c3        1 MOL      0.168041
     89 C30         2.9690   -1.9600    3.2820 c3        1 MOL     -0.033503
     90 C31         1.4570   -2.0710    6.0470 c3        1 MOL     -0.299967
     91 H36        -0.3030   -4.5250    2.7510 hn        1 MOL      0.291335
     92 H37         0.5280   -1.7570    2.0570 h1        1 MOL      0.301554
     93 H38         1.9990   -3.7120    3.7770 hc        1 MOL     -0.026078
     94 H39        -0.1650   -2.6840    4.7040 hc        1 MOL     -0.027168
     95 H40         0.5340   -1.1050    4.4290 hc        1 MOL     -0.027168
     96 H41         2.8210   -1.0030    2.7910 hc        1 MOL      0.010186
     97 H42         3.4220   -1.8680    4.2680 hc        1 MOL      0.010186
     98 H43         3.6710   -2.5370    2.6810 hc        1 MOL      0.010186
     99 H44         0.7690   -2.0760    6.8950 hc        1 MOL      0.060380
    100 H45         1.9390   -3.0300    6.2080 hc        1 MOL      0.060380
    101 H46         2.1760   -1.2510    6.0570 hc        1 MOL      0.060380
    102 N10         1.9600   -2.1680    0.2100 n         1 MOL      0.043889
    103 C32         2.7800   -2.1620   -1.0260 c3        1 MOL     -0.015938
    104 C33         4.1880   -1.7100   -0.6970 c         1 MOL      0.377214
    105 O16         4.3720   -0.8860    0.2040 o         1 MOL     -0.195575
    106 C34         2.1370   -1.1550   -1.9670 c3        1 MOL     -0.251066
    107 C35         0.7380   -1.6120   -2.3950 c         1 MOL      0.776548
    108 O17        -0.2280   -1.1740   -1.7320 o         1 MOL     -0.682964
    109 O18         0.4880   -2.2010   -3.4660 o         1 MOL     -0.682964
    110 H47         1.6550   -1.2360    0.4750 hn        1 MOL     -0.641157
    111 H48         2.7000   -3.1650   -1.4440 h1        1 MOL      0.074332
    112 H49         2.6990   -1.1310   -2.8970 hc        1 MOL      0.119230
    113 H50         2.1500   -0.1430   -1.5570 hc        1 MOL      0.119230
    114 N11         5.1410   -2.0050   -1.5820 n         1 MOL     -0.581824
    115 C36         6.5690   -1.5050   -1.4360 c3        1 MOL      0.290196
    116 C37         6.6750    0.0140   -1.2240 c         1 MOL      0.391683
    117 O19         7.5490    0.4230   -0.5120 o         1 MOL     -0.472679
    118 C38         7.3980   -1.9300   -2.6260 c3        1 MOL     -0.300422
    119 C39         8.8250   -1.4360   -2.5130 ca        1 MOL      0.194657
    120 C40         9.6280   -2.1970   -1.6360 ca        1 MOL     -0.226716
    121 C41         9.3570   -0.3550   -3.2140 ca        1 MOL     -0.226716
    122 C42        10.9450   -1.7950   -1.4000 ca        1 MOL     -0.100443
    123 C43        10.7320    0.0260   -3.0330 ca        1 MOL     -0.100443
    124 C44        11.5020   -0.6850   -2.0850 ca        1 MOL     -0.107293
    125 H51         4.8750   -2.7030   -2.2570 hn        1 MOL      0.339717
    126 H52         6.9720   -1.8350   -0.4790 h1        1 MOL      0.034822
    127 H53         6.9190   -1.6160   -3.5590 hc        1 MOL      0.085095
    128 H54         7.4340   -3.0210   -2.6270 hc        1 MOL      0.085095
    129 H55         9.2500   -2.9890   -1.0030 ha        1 MOL      0.139861
    130 H56         8.7390    0.2020   -3.9050 ha        1 MOL      0.139861
    131 H57        11.5060   -2.2580   -0.6020 ha        1 MOL      0.112227
    132 H58        11.2120    0.7950   -3.6190 ha        1 MOL      0.112227
    133 H59        12.5260   -0.4260   -1.9050 ha        1 MOL      0.095661
    134 N12         5.8670    0.8630   -1.8730 n         1 MOL     -0.044457
    135 C45         5.9090    2.2820   -1.4070 c3        1 MOL      0.058643
    136 C46         5.5990    2.5810    0.0660 c         1 MOL      0.242160
    137 O20         6.1900    3.3880    0.7590 o         1 MOL     -0.497494
    138 C47         4.9490    3.0120   -2.3180 c3        1 MOL      0.010654
    139 C48         5.0870    2.1990   -3.7050 c3        1 MOL     -0.038988
    140 C49         5.0450    0.8190   -3.0660 c3        1 MOL     -0.035851
    141 H60         6.9390    2.6030   -1.5090 h1        1 MOL      0.036834
    142 H61         3.9250    3.1300   -1.9660 hc        1 MOL      0.022242
    143 H62         5.3350    4.0170   -2.4660 hc        1 MOL      0.022242
    144 H63         4.2450    2.4590   -4.3470 hc        1 MOL      0.030579
    145 H64         6.0260    2.5100   -4.1720 hc        1 MOL      0.030579
    146 H65         4.0290    0.4740   -2.8650 h1        1 MOL      0.017125
    147 H66         5.5810    0.1570   -3.7380 h1        1 MOL      0.017125
    148 N13         4.5540    1.9210    0.5440 n         1 MOL      0.039657
    149 C50         3.9700    2.1470    1.9100 c3        1 MOL     -0.163101
    150 C51         4.8100    1.4410    2.9730 c         1 MOL      0.447626
    151 O21         4.9150    1.9570    4.0960 o         1 MOL     -0.571545
    152 C52         2.5030    1.6420    1.9260 c3        1 MOL     -0.117466
    153 C53         1.6820    2.2570    0.8650 c3        1 MOL     -0.230499
    154 C54         0.3620    1.4730    0.7490 c         1 MOL      0.990684
    155 O22         0.1850    0.3040    1.1650 o         1 MOL     -0.815123
    156 O23        -0.6150    2.0160    0.1500 o         1 MOL     -0.815123
    157 H67         4.1980    1.1750   -0.0310 hn        1 MOL      0.042381
    158 H68         3.9510    3.2280    2.0530 h1        1 MOL      0.134657
    159 H69         2.1300    1.6510    2.9540 hc        1 MOL      0.098830
    160 H70         2.5540    0.6130    1.5760 hc        1 MOL      0.098830
    161 H71         2.1520    2.2850   -0.1170 hc        1 MOL      0.105347
    162 H72         1.5400    3.3130    1.0790 hc        1 MOL      0.105347
    163 N14         5.4370    0.3310    2.6790 n         1 MOL      0.038446
    164 C55         6.5050   -0.3450    3.4530 c3        1 MOL     -0.217388
    165 H73         6.8930   -1.1850    2.8780 h1        1 MOL      0.081776
    166 H74         7.3110    0.3610    3.6530 h1        1 MOL      0.081776
    167 H75         6.0970   -0.7080    4.3960 h1        1 MOL      0.081776
    168 H76         5.1990   -0.0270    1.7630 hn        1 MOL     -0.031779
    169 Ca1        -2.0410   -0.1180   -0.2300 Ca        1 MOL      1.750656
    170 O24        -4.1990   -0.9540    1.6160 oh        1 MOL     -0.930583
    171 H77        -5.0090   -0.6690    2.0440 ho        1 MOL      0.435765
    172 H78        -3.6080   -1.1730    2.3410 ho        1 MOL      0.435765
    173 O25        -1.6280   -0.3720    3.0300 oh        1 MOL     -0.930583
    174 H79        -1.8560    0.3180    3.6510 ho        1 MOL      0.435765
    175 H80        -0.7320   -0.1610    2.7560 ho        1 MOL      0.435765
@<TRIPOS>BOND
     1    1    2 1   
     2    1    4 1   
     3    1    5 1   
     4    1    6 1   
     5    2    3 2   
     6    2    7 1   
     7    7    8 1   
     8    7   15 1   
     9    8    9 1   
    10    8   11 1   
    11    8   16 1   
    12    9   10 2   
    13    9   19 1   
    14   11   12 1   
    15   11   17 1   
    16   11   18 1   
    17   12   13 1   
    18   12   14 1   
    19   19   20 1   
    20   19   24 1   
    21   20   21 1   
    22   20   23 1   
    23   20   25 1   
    24   21   22 2   
    25   21   29 1   
    26   23   26 1   
    27   23   27 1   
    28   23   28 1   
    29   29   30 1   
    30   29   37 1   
    31   30   31 1   
    32   30   33 1   
    33   30   38 1   
    34   31   32 2   
    35   31   41 1   
    36   33   34 1   
    37   33   39 1   
    38   33   40 1   
    39   34   35 1   
    40   34   36 1   
    41   41   42 1   
    42   41   45 1   
    43   42   43 1   
    44   42   46 1   
    45   42   47 1   
    46   43   44 2   
    47   43   48 1   
    48   48   49 1   
    49   48   56 1   
    50   49   50 1   
    51   49   52 1   
    52   49   57 1   
    53   50   51 2   
    54   50   62 1   
    55   52   53 1   
    56   52   58 1   
    57   52   59 1   
    58   53   54 1   
    59   53   55 2   
    60   54   60 1   
    61   54   61 1   
    62   62   63 1   
    63   62   66 1   
    64   63   64 1   
    65   63   67 1   
    66   63   68 1   
    67   64   65 2   
    68   64   69 1   
    69   69   70 1   
    70   69   76 1   
    71   70   71 1   
    72   70   73 1   
    73   70   77 1   
    74   71   72 2   
    75   71   83 1   
    76   73   74 1   
    77   73   75 1   
    78   73   78 1   
    79   74   80 1   
    80   74   81 1   
    81   74   82 1   
    82   75   79 1   
    83   83   84 1   
    84   83   91 1   
    85   84   85 1   
    86   84   87 1   
    87   84   92 1   
    88   85   86 2   
    89   85  102 1   
    90   87   88 1   
    91   87   89 1   
    92   87   93 1   
    93   88   90 1   
    94   88   94 1   
    95   88   95 1   
    96   89   96 1   
    97   89   97 1   
    98   89   98 1   
    99   90   99 1   
   100   90  100 1   
   101   90  101 1   
   102  102  103 1   
   103  102  110 1   
   104  103  104 1   
   105  103  106 1   
   106  103  111 1   
   107  104  105 2   
   108  104  114 1   
   109  106  107 1   
   110  106  112 1   
   111  106  113 1   
   112  107  108 1   
   113  107  109 1   
   114  114  115 1   
   115  114  125 1   
   116  115  116 1   
   117  115  118 1   
   118  115  126 1   
   119  116  117 2   
   120  116  134 1   
   121  118  119 1   
   122  118  127 1   
   123  118  128 1   
   124  119  120 ar  
   125  119  121 ar  
   126  120  122 ar  
   127  120  129 1   
   128  121  123 ar  
   129  121  130 1   
   130  122  124 ar  
   131  122  131 1   
   132  123  124 ar  
   133  123  132 1   
   134  124  133 1   
   135  134  135 1   
   136  134  140 1   
   137  135  136 1   
   138  135  138 1   
   139  135  141 1   
   140  136  137 2   
   141  136  148 1   
   142  138  139 1   
   143  138  142 1   
   144  138  143 1   
   145  139  140 1   
   146  139  144 1   
   147  139  145 1   
   148  140  146 1   
   149  140  147 1   
   150  148  149 1   
   151  148  157 1   
   152  149  150 1   
   153  149  152 1   
   154  149  158 1   
   155  150  151 2   
   156  150  163 1   
   157  152  153 1   
   158  152  159 1   
   159  152  160 1   
   160  153  154 1   
   161  153  161 1   
   162  153  162 1   
   163  154  155 1   
   164  154  156 1   
   165  163  164 1   
   166  163  168 1   
   167  164  165 1   
   168  164  166 1   
   169  164  167 1   
   170  170  171 1   
   171  170  172 1   
   172  173  174 1   
   173  173  175 1   
@<TRIPOS>SUBSTRUCTURE
     1 MOL         1 TEMP              0 ****  ****    0 ROOT
