@<TRIPOS>MOLECULE
MOL
  189   185     1     0     0
SMALL
resp


@<TRIPOS>ATOM
      1 C1         -0.4140   -3.9340    5.8610 c3        1 MOL     -0.332673
      2 C2          0.2620   -3.3950    4.6090 c         1 MOL      0.696639
      3 O1          0.4700   -2.1710    4.4180 o         1 MOL     -0.582218
      4 H1         -0.8610   -4.9040    5.6430 hc        1 MOL      0.087627
      5 H2          0.3250   -4.0440    6.6550 hc        1 MOL      0.087627
      6 H3         -1.1920   -3.2410    6.1820 hc        1 MOL      0.087627
      7 N1          0.8460   -4.2910    3.8040 n         1 MOL     -0.563559
      8 C3          1.5460   -3.9290    2.5680 c3        1 MOL      0.278322
      9 C4          1.4360   -5.0560    1.5360 c         1 MOL      0.416815
     10 O2          1.6010   -6.2550    1.8230 o         1 MOL     -0.577968
     11 C5          2.9670   -3.6780    2.8790 c3        1 MOL     -0.229642
     12 C6          3.8300   -3.1750    1.7570 c         1 MOL      0.770460
     13 O3          5.0240   -3.3560    1.9760 o         1 MOL     -0.684885
     14 O4          3.3900   -2.6760    0.7020 o         1 MOL     -0.684885
     15 H4          0.7610   -5.2550    4.0900 hn        1 MOL      0.293816
     16 H5          1.1290   -3.0100    2.1580 h1        1 MOL     -0.015574
     17 H6          3.3100   -4.5520    3.4390 hc        1 MOL      0.049590
     18 H7          2.9700   -2.8530    3.5930 hc        1 MOL      0.049590
     19 N2          1.2030   -4.6940    0.2460 n         1 MOL      0.031327
     20 C7          1.0310   -5.5570   -0.8780 c3        1 MOL     -0.413871
     21 C8          1.9750   -5.2860   -2.0750 c         1 MOL      0.554477
     22 O5          1.9390   -5.9760   -3.0990 o         1 MOL     -0.587210
     23 C9         -0.4470   -5.6160   -1.3160 c3        1 MOL      0.422189
     24 C10        -0.8620   -4.3000   -1.9830 c3        1 MOL      0.068972
     25 C11        -1.4000   -6.0520   -0.1930 c3        1 MOL     -0.398544
     26 C12        -2.1440   -4.5220   -2.8150 c3        1 MOL     -0.446420
     27 H8          1.0140   -3.7040    0.2130 hn        1 MOL     -0.007403
     28 H9          1.3270   -6.5410   -0.5250 h1        1 MOL      0.142589
     29 H10        -0.5120   -6.3940   -2.0730 hc        1 MOL     -0.060756
     30 H11        -0.0490   -3.9440   -2.6160 hc        1 MOL      0.047943
     31 H12        -1.0670   -3.5450   -1.2270 hc        1 MOL      0.047943
     32 H13        -1.0250   -7.0490    0.0380 hc        1 MOL      0.081912
     33 H14        -1.4120   -5.4120    0.6880 hc        1 MOL      0.081912
     34 H15        -2.4100   -6.2890   -0.5410 hc        1 MOL      0.081912
     35 H16        -2.0140   -5.3640   -3.4890 hc        1 MOL      0.098713
     36 H17        -2.9780   -4.8130   -2.1810 hc        1 MOL      0.098713
     37 H18        -2.2100   -3.5980   -3.3990 hc        1 MOL      0.098713
     38 N3          2.7760   -4.2160   -2.0150 n         1 MOL     -0.314760
     39 C13         3.7620   -3.9180   -3.1340 c3        1 MOL     -0.058693
     40 C14         5.1990   -3.4910   -2.6960 c         1 MOL      0.380311
     41 O6          6.1160   -3.4040   -3.4710 o         1 MOL     -0.509295
     42 C15         3.1490   -2.7710   -4.0240 c3        1 MOL     -0.251794
     43 C16         2.7500   -1.5260   -3.2160 c         1 MOL      0.716513
     44 O7          3.1570   -1.1840   -2.0680 o         1 MOL     -0.695104
     45 O8          2.0820   -0.7550   -3.9480 o         1 MOL     -0.695104
     46 H19         2.7730   -3.6130   -1.2020 hn        1 MOL      0.246639
     47 H20         3.9320   -4.8010   -3.7530 h1        1 MOL      0.115512
     48 H21         2.2230   -3.1490   -4.4700 hc        1 MOL      0.088936
     49 H22         3.8460   -2.4220   -4.7930 hc        1 MOL      0.088936
     50 N4          5.3420   -3.1220   -1.4060 n         1 MOL     -0.199722
     51 C17         6.6060   -2.6730   -0.8450 c3        1 MOL      0.038078
     52 C18         7.1920   -1.4190   -1.4380 c         1 MOL      0.383354
     53 O9          8.3530   -1.3010   -1.6700 o         1 MOL     -0.563520
     54 H23         4.6220   -3.0170   -0.7100 hn        1 MOL      0.107038
     55 H24         7.3410   -3.4700   -0.9640 h1        1 MOL      0.036625
     56 H25         6.5350   -2.5910    0.2400 h1        1 MOL      0.036625
     57 N5          6.3150   -0.4820   -1.7950 n         1 MOL     -0.151923
     58 C19         6.6340    0.8810   -2.3330 c3        1 MOL     -0.008973
     59 C20         7.1830    1.7950   -1.2500 c         1 MOL      0.465223
     60 O10         7.9920    2.6270   -1.4830 o         1 MOL     -0.583456
     61 C21         5.4980    1.5130   -3.1240 c3        1 MOL     -0.381863
     62 C22         4.2690    1.7640   -2.3110 c         1 MOL      0.757052
     63 O11         4.1700    1.3310   -1.1040 o         1 MOL     -0.668009
     64 O12         3.2670    2.3400   -2.8350 o         1 MOL     -0.668009
     65 H26         5.3260   -0.6040   -1.6310 hn        1 MOL      0.232421
     66 H27         7.5020    0.8290   -2.9840 h1        1 MOL      0.081516
     67 H28         5.3220    0.8050   -3.9320 hc        1 MOL      0.123733
     68 H29         5.7840    2.4420   -3.6160 hc        1 MOL      0.123733
     69 N6          6.7640    1.6390   -0.0280 n         1 MOL     -0.089361
     70 C23         7.1340    2.4990    1.0910 c3        1 MOL     -0.277358
     71 C24         6.0340    3.5590    1.3740 c         1 MOL      0.563603
     72 O13         6.2420    4.4240    2.1930 o         1 MOL     -0.614478
     73 H30         6.1690    0.8540    0.1680 hn        1 MOL      0.116391
     74 H31         8.1430    2.9070    1.0140 h1        1 MOL      0.115173
     75 H32         7.0440    1.8010    1.9290 h1        1 MOL      0.115173
     76 N7          4.8940    3.4750    0.7060 n         1 MOL     -0.237368
     77 C25         3.6890    4.2320    0.9260 c3        1 MOL      0.121347
     78 C26         2.5480    3.2950    1.3540 c         1 MOL      0.410252
     79 O14         2.6650    2.0500    1.2220 o         1 MOL     -0.560086
     80 C27         3.2250    5.0460   -0.3010 c3        1 MOL      0.230541
     81 C28         4.3460    5.8810   -0.9020 c3        1 MOL     -0.270045
     82 C29         4.8180    7.1150   -0.1560 c         1 MOL      0.564215
     83 N8          5.8880    7.0130    0.6270 n         1 MOL     -0.731840
     84 O15         4.0730    8.1330    0.0160 o         1 MOL     -0.592407
     85 H33         4.7710    2.7220    0.0430 hn        1 MOL      0.159305
     86 H34         3.8010    4.9470    1.7440 h1        1 MOL      0.028912
     87 H35         2.3760    5.6580    0.0020 hc        1 MOL     -0.017174
     88 H36         2.9310    4.4110   -1.1380 hc        1 MOL     -0.017174
     89 H37         3.9430    6.2540   -1.8380 hc        1 MOL      0.065443
     90 H38         5.2110    5.2290   -1.0390 hc        1 MOL      0.065443
     91 H39         6.4130    6.1540    0.6540 hn        1 MOL      0.352991
     92 H40         6.0980    7.8030    1.2370 hn        1 MOL      0.352991
     93 N9          1.4460    3.8450    1.8830 n         1 MOL     -0.533889
     94 C30         0.2900    3.0680    2.1980 c3        1 MOL      0.020608
     95 C31        -0.7480    3.4600    1.1580 c         1 MOL      0.498220
     96 O16        -1.2250    4.5670    1.1810 o         1 MOL     -0.608353
     97 C32        -0.2880    3.2700    3.6310 c3        1 MOL      0.274644
     98 C33        -1.6990    2.7030    3.8180 c3        1 MOL     -0.240064
     99 C34         0.7090    2.6740    4.6500 c3        1 MOL     -0.240064
    100 H41         1.4100    4.8500    1.9790 hn        1 MOL      0.322710
    101 H42         0.4520    2.0080    2.0740 h1        1 MOL      0.179960
    102 H43        -0.3890    4.3340    3.8390 hc        1 MOL     -0.031894
    103 H44        -1.9840    2.6670    4.8640 hc        1 MOL      0.041583
    104 H45        -2.3800    3.4030    3.3380 hc        1 MOL      0.041583
    105 H46        -1.7750    1.7240    3.3470 hc        1 MOL      0.041583
    106 H47         0.5790    3.1410    5.6160 hc        1 MOL      0.041583
    107 H48         0.6680    1.5880    4.7500 hc        1 MOL      0.041583
    108 H49         1.7050    3.0720    4.4790 hc        1 MOL      0.041583
    109 N10        -1.2530    2.5820    0.3590 n         1 MOL     -0.294136
    110 C35        -2.4340    2.7250   -0.4690 c3        1 MOL      0.187841
    111 C36        -3.6880    2.5600    0.4040 c         1 MOL      0.073998
    112 O17        -3.6540    1.9050    1.4480 o         1 MOL     -0.120046
    113 C37        -2.2750    1.7830   -1.6210 c3        1 MOL     -0.598458
    114 C38        -3.4760    1.6600   -2.4920 c         1 MOL      0.787309
    115 N11        -3.9190    2.6370   -3.2280 n         1 MOL     -0.768529
    116 O18        -4.0450    0.5450   -2.5230 o         1 MOL     -0.568026
    117 H50        -0.8730    1.6500    0.4800 hn        1 MOL      0.281402
    118 H51        -2.5460    3.7660   -0.7650 h1        1 MOL      0.053928
    119 H52        -2.0160    0.7980   -1.2280 hc        1 MOL      0.179892
    120 H53        -1.3800    2.0750   -2.1610 hc        1 MOL      0.179892
    121 H54        -3.4470    3.5270   -3.1820 hn        1 MOL      0.354062
    122 H55        -4.2390    2.3550   -4.1380 hn        1 MOL      0.354062
    123 N12        -4.8690    3.1200    0.0150 n         1 MOL     -0.094990
    124 C39        -6.0620    2.9730    0.7200 c3        1 MOL      0.018558
    125 C40        -6.3860    1.4470    1.0310 c         1 MOL      0.316158
    126 O19        -7.0380    1.0800    1.9920 o         1 MOL     -0.525861
    127 C41        -7.2260    3.6360   -0.0760 c3        1 MOL     -0.068282
    128 C42        -7.3360    3.2800   -1.5770 ca        1 MOL     -0.007146
    129 C43        -6.7770    4.1600   -2.6120 ca        1 MOL     -0.139886
    130 C44        -8.0450    2.1180   -2.0500 ca        1 MOL     -0.139886
    131 C45        -6.8540    3.8290   -3.9850 ca        1 MOL     -0.311559
    132 C46        -8.1420    1.8270   -3.4460 ca        1 MOL     -0.311559
    133 C47        -7.4950    2.6120   -4.4060 ca        1 MOL      0.444155
    134 O20        -7.4640    2.1690   -5.6660 oh        1 MOL     -0.588337
    135 H56        -4.9310    3.6070   -0.8690 hn        1 MOL      0.116666
    136 H57        -5.8940    3.4830    1.6610 h1        1 MOL      0.046890
    137 H58        -7.0890    4.7200   -0.0310 hc        1 MOL      0.044357
    138 H59        -8.1470    3.4820    0.4910 hc        1 MOL      0.044357
    139 H60        -6.2190    5.0390   -2.3320 ha        1 MOL      0.132525
    140 H61        -8.5770    1.4400   -1.3830 ha        1 MOL      0.132525
    141 H62        -6.3580    4.4550   -4.7150 ha        1 MOL      0.138920
    142 H63        -8.6940    0.9400   -3.7180 ha        1 MOL      0.138920
    143 H64        -7.9870    1.3960   -5.8630 ho        1 MOL      0.438892
    144 N13        -6.0880    0.5570    0.0370 n         1 MOL      0.089491
    145 C48        -6.5080   -0.8850   -0.0360 c3        1 MOL     -0.130600
    146 C49        -5.6550   -1.6950    0.9170 c         1 MOL      0.472752
    147 O21        -6.0370   -2.7830    1.3850 o         1 MOL     -0.508199
    148 C50        -6.5100   -1.4230   -1.4990 c3        1 MOL     -0.055004
    149 C51        -7.2950   -2.7740   -1.6340 c3        1 MOL     -0.207315
    150 C52        -8.7900   -2.5890   -1.2990 c         1 MOL      0.690260
    151 O22        -9.3190   -3.2700   -0.4380 o         1 MOL     -0.721786
    152 O23        -9.4070   -1.7260   -1.9600 o         1 MOL     -0.721786
    153 H65        -5.7350    0.9380   -0.8270 hn        1 MOL      0.174551
    154 H66        -7.5220   -0.9440    0.3550 h1        1 MOL      0.151980
    155 H67        -5.4670   -1.5640   -1.7950 hc        1 MOL      0.041497
    156 H68        -6.7810   -0.6600   -2.2310 hc        1 MOL      0.041497
    157 H69        -6.9160   -3.5130   -0.9240 hc        1 MOL      0.028027
    158 H70        -7.2650   -3.1010   -2.6770 hc        1 MOL      0.028027
    159 N14        -4.5210   -1.1590    1.3790 n         1 MOL     -0.184649
    160 C53        -3.7570   -1.6270    2.5400 c3        1 MOL     -0.010581
    161 C54        -4.2070   -0.9270    3.7790 c         1 MOL      0.443077
    162 O24        -4.5900   -1.6350    4.7300 o         1 MOL     -0.558829
    163 C55        -2.2870   -1.3320    2.2290 c3        1 MOL      0.028286
    164 C56        -1.7790   -1.7950    0.8450 c3        1 MOL      0.126274
    165 C57        -0.3440   -1.2050    0.4990 c         1 MOL      0.813367
    166 O25         0.5220   -1.9140   -0.0370 o         1 MOL     -0.796988
    167 O26        -0.0320   -0.0240    0.7310 o         1 MOL     -0.796988
    168 H71        -4.2800   -0.2740    0.9690 hn        1 MOL      0.033252
    169 H72        -3.7620   -2.7130    2.6000 h1        1 MOL      0.071673
    170 H73        -1.6550   -1.7250    3.0240 hc        1 MOL     -0.046388
    171 H74        -2.0790   -0.2570    2.2430 hc        1 MOL     -0.046388
    172 H75        -2.4190   -1.4370    0.0430 hc        1 MOL     -0.048364
    173 H76        -1.7390   -2.8870    0.7830 hc        1 MOL     -0.048364
    174 N15        -4.3750    0.4040    3.7730 n         1 MOL     -0.025884
    175 C58        -4.9250    1.1950    4.8840 c3        1 MOL     -0.266340
    176 H77        -4.6990    2.2500    4.7260 h1        1 MOL      0.096182
    177 H78        -6.0050    1.0590    4.9280 h1        1 MOL      0.096182
    178 H79        -4.4780    0.8660    5.8220 h1        1 MOL      0.096182
    179 H80        -4.1760    0.8500    2.8870 hn        1 MOL      0.004183
    180 Ca1         2.5350   -0.3000    0.2230 Ca        1 MOL      1.759380
    181 O27         2.1970   -0.5180    2.9140 oh        1 MOL     -0.867276
    182 H81         2.6450   -0.0450    3.6110 ho        1 MOL      0.408975
    183 H82         1.4150   -0.8770    3.3430 ho        1 MOL      0.408975
    184 O28         5.2830   -0.7040    1.3150 oh        1 MOL     -0.867276
    185 H83         5.2300   -1.6450    1.4840 ho        1 MOL      0.408975
    186 H84         5.5210   -0.3210    2.1620 ho        1 MOL      0.408975
    187 O29         1.2270    1.2520   -1.4820 oh        1 MOL     -0.867276
    188 H85         0.6990    0.7740   -2.1100 ho        1 MOL      0.408975
    189 H86         1.9130    1.6610   -2.0050 ho        1 MOL      0.408975
@<TRIPOS>BOND
     1    1    2 1   
     2    1    4 1   
     3    1    5 1   
     4    1    6 1   
     5    2    3 2   
     6    2    7 1   
     7    7    8 1   
     8    7   15 1   
     9    8    9 1   
    10    8   11 1   
    11    8   16 1   
    12    9   10 2   
    13    9   19 1   
    14   11   12 1   
    15   11   17 1   
    16   11   18 1   
    17   12   13 1   
    18   12   14 1   
    19   19   20 1   
    20   19   27 1   
    21   20   21 1   
    22   20   23 1   
    23   20   28 1   
    24   21   22 2   
    25   21   38 1   
    26   23   24 1   
    27   23   25 1   
    28   23   29 1   
    29   24   26 1   
    30   24   30 1   
    31   24   31 1   
    32   25   32 1   
    33   25   33 1   
    34   25   34 1   
    35   26   35 1   
    36   26   36 1   
    37   26   37 1   
    38   38   39 1   
    39   38   46 1   
    40   39   40 1   
    41   39   42 1   
    42   39   47 1   
    43   40   41 2   
    44   40   50 1   
    45   42   43 1   
    46   42   48 1   
    47   42   49 1   
    48   43   44 1   
    49   43   45 1   
    50   50   51 1   
    51   50   54 1   
    52   51   52 1   
    53   51   55 1   
    54   51   56 1   
    55   52   53 2   
    56   52   57 1   
    57   57   58 1   
    58   57   65 1   
    59   58   59 1   
    60   58   61 1   
    61   58   66 1   
    62   59   60 2   
    63   59   69 1   
    64   61   62 1   
    65   61   67 1   
    66   61   68 1   
    67   62   63 1   
    68   62   64 1   
    69   69   70 1   
    70   69   73 1   
    71   70   71 1   
    72   70   74 1   
    73   70   75 1   
    74   71   72 2   
    75   71   76 1   
    76   76   77 1   
    77   76   85 1   
    78   77   78 1   
    79   77   80 1   
    80   77   86 1   
    81   78   79 2   
    82   78   93 1   
    83   80   81 1   
    84   80   87 1   
    85   80   88 1   
    86   81   82 1   
    87   81   89 1   
    88   81   90 1   
    89   82   83 1   
    90   82   84 2   
    91   83   91 1   
    92   83   92 1   
    93   93   94 1   
    94   93  100 1   
    95   94   95 1   
    96   94   97 1   
    97   94  101 1   
    98   95   96 2   
    99   95  109 1   
   100   97   98 1   
   101   97   99 1   
   102   97  102 1   
   103   98  103 1   
   104   98  104 1   
   105   98  105 1   
   106   99  106 1   
   107   99  107 1   
   108   99  108 1   
   109  109  110 1   
   110  109  117 1   
   111  110  111 1   
   112  110  113 1   
   113  110  118 1   
   114  111  112 2   
   115  111  123 1   
   116  113  114 1   
   117  113  119 1   
   118  113  120 1   
   119  114  115 1   
   120  114  116 2   
   121  115  121 1   
   122  115  122 1   
   123  123  124 1   
   124  123  135 1   
   125  124  125 1   
   126  124  127 1   
   127  124  136 1   
   128  125  126 2   
   129  125  144 1   
   130  127  128 1   
   131  127  137 1   
   132  127  138 1   
   133  128  129 ar  
   134  128  130 ar  
   135  129  131 ar  
   136  129  139 1   
   137  130  132 ar  
   138  130  140 1   
   139  131  133 ar  
   140  131  141 1   
   141  132  133 ar  
   142  132  142 1   
   143  133  134 1   
   144  134  143 1   
   145  144  145 1   
   146  144  153 1   
   147  145  146 1   
   148  145  148 1   
   149  145  154 1   
   150  146  147 2   
   151  146  159 1   
   152  148  149 1   
   153  148  155 1   
   154  148  156 1   
   155  149  150 1   
   156  149  157 1   
   157  149  158 1   
   158  150  151 1   
   159  150  152 1   
   160  159  160 1   
   161  159  168 1   
   162  160  161 1   
   163  160  163 1   
   164  160  169 1   
   165  161  162 2   
   166  161  174 1   
   167  163  164 1   
   168  163  170 1   
   169  163  171 1   
   170  164  165 1   
   171  164  172 1   
   172  164  173 1   
   173  165  166 1   
   174  165  167 1   
   175  174  175 1   
   176  174  179 1   
   177  175  176 1   
   178  175  177 1   
   179  175  178 1   
   180  181  182 1   
   181  181  183 1   
   182  184  185 1   
   183  184  186 1   
   184  187  188 1   
   185  187  189 1   
@<TRIPOS>SUBSTRUCTURE
     1 MOL         1 TEMP              0 ****  ****    0 ROOT
