@<TRIPOS>MOLECULE
MOL
  169   169     1     0     0
SMALL
resp


@<TRIPOS>ATOM
      1 C1          0.2130   -1.2010    6.1620 c3        1 MOL     -0.332738
      2 C2          0.7130   -1.5860    4.7430 c         1 MOL      0.728586
      3 O1          0.2910   -2.5940    4.1260 o         1 MOL     -0.568045
      4 H1          1.0690   -1.0540    6.8210 hc        1 MOL      0.084022
      5 H2         -0.3650   -0.2790    6.1070 hc        1 MOL      0.084022
      6 H3         -0.4140   -2.0010    6.5570 hc        1 MOL      0.084022
      7 N1          1.7790   -0.9240    4.2540 n         1 MOL     -0.589315
      8 C3          2.4140   -1.2430    2.9460 c3        1 MOL      0.183469
      9 C4          2.8170   -2.7260    2.8520 c         1 MOL      0.428155
     10 O2          3.3190   -3.2530    3.8210 o         1 MOL     -0.537489
     11 C5          3.5280   -0.2430    2.7400 c3        1 MOL     -0.195761
     12 C6          3.9510   -0.2810    1.3010 c         1 MOL      0.712467
     13 O3          4.8470   -1.0090    0.9000 o         1 MOL     -0.644437
     14 O4          3.4390    0.4740    0.4430 o         1 MOL     -0.644437
     15 H4          2.2820   -0.2250    4.7690 hn        1 MOL      0.306834
     16 H5          1.6620   -1.0320    2.1830 h1        1 MOL      0.015836
     17 H6          4.2740   -0.5760    3.4660 hc        1 MOL      0.037243
     18 H7          3.1040    0.7410    2.9460 hc        1 MOL      0.037243
     19 N2          2.5530   -3.4060    1.7450 n         1 MOL     -0.158075
     20 C7          2.6620   -4.7760    1.6020 c3        1 MOL      0.009162
     21 C8          3.3630   -5.2090    0.2600 c         1 MOL      0.379951
     22 O5          4.0810   -6.2290    0.1330 o         1 MOL     -0.547582
     23 C9          1.2410   -5.4020    1.6810 c3        1 MOL     -0.098016
     24 H8          2.0980   -2.8840    1.0040 hn        1 MOL      0.247009
     25 H9          3.2350   -5.2490    2.4030 h1        1 MOL      0.075612
     26 H10         0.6100   -5.0880    0.8490 hc        1 MOL      0.027214
     27 H11         1.1360   -6.4800    1.7250 hc        1 MOL      0.027214
     28 H12         0.6880   -5.0530    2.5580 hc        1 MOL      0.027214
     29 N3          3.2840   -4.3160   -0.7730 n         1 MOL     -0.165006
     30 C10         4.0720   -4.4460   -2.0540 c3        1 MOL     -0.093716
     31 C11         5.4470   -3.7970   -1.9830 c         1 MOL      0.479644
     32 O6          6.3540   -4.1400   -2.7220 o         1 MOL     -0.575805
     33 C12         3.2820   -3.8500   -3.2720 c3        1 MOL     -0.168685
     34 C13         2.7940   -2.4830   -2.8360 c         1 MOL      0.811265
     35 O7          3.4770   -1.6930   -2.1480 o         1 MOL     -0.773194
     36 O8          1.7350   -1.9890   -3.3850 o         1 MOL     -0.773194
     37 H13         2.7170   -3.4990   -0.6040 hn        1 MOL      0.099878
     38 H14         4.0840   -5.5190   -2.2570 h1        1 MOL      0.120908
     39 H15         2.4180   -4.4750   -3.4780 hc        1 MOL      0.056003
     40 H16         3.8480   -3.7620   -4.1910 hc        1 MOL      0.056003
     41 N4          5.7520   -3.0720   -0.8960 n         1 MOL     -0.086654
     42 C14         7.0350   -2.6050   -0.3740 c3        1 MOL     -0.078724
     43 C15         7.5430   -1.2200   -0.9100 c         1 MOL      0.452888
     44 O9          8.7620   -0.9030   -0.8020 o         1 MOL     -0.594423
     45 H17         5.0650   -2.6370   -0.3120 hn        1 MOL      0.076710
     46 H18         7.7710   -3.3710   -0.5950 h1        1 MOL      0.066531
     47 H19         6.9400   -2.6990    0.7090 h1        1 MOL      0.066531
     48 N5          6.7100   -0.3370   -1.4040 n         1 MOL     -0.226674
     49 C16         7.1020    0.9770   -1.8290 c3        1 MOL      0.034786
     50 C17         6.9060    1.9440   -0.7040 c         1 MOL      0.416234
     51 O10         7.4200    3.0130   -0.8750 o         1 MOL     -0.562077
     52 C18         6.2420    1.2940   -3.0510 c3        1 MOL     -0.259989
     53 C19         4.9110    1.9590   -2.8120 c         1 MOL      0.714339
     54 N6          4.7960    3.2170   -3.2660 n         1 MOL     -0.817245
     55 O11         3.9140    1.3110   -2.4150 o         1 MOL     -0.637898
     56 H20         5.7760   -0.6890   -1.5230 hn        1 MOL      0.235610
     57 H21         8.1560    0.9720   -2.1410 h1        1 MOL      0.113072
     58 H22         6.1630    0.3650   -3.6200 hc        1 MOL      0.088612
     59 H23         6.7770    2.0220   -3.6610 hc        1 MOL      0.088612
     60 H24         5.6440    3.7170   -3.5000 hn        1 MOL      0.376961
     61 H25         3.9150    3.7070   -3.3830 hn        1 MOL      0.376961
     62 N7          6.2140    1.6670    0.4070 n         1 MOL     -0.010093
     63 C20         6.1070    2.5690    1.5210 c3        1 MOL     -0.407463
     64 C21         5.0220    3.6970    1.4300 c         1 MOL      0.663376
     65 O12         5.1700    4.7370    2.0490 o         1 MOL     -0.572348
     66 H26         5.7250    0.7860    0.4540 hn        1 MOL      0.111096
     67 H27         7.0630    3.0880    1.6340 h1        1 MOL      0.148205
     68 H28         5.8390    2.0450    2.4420 h1        1 MOL      0.148205
     69 N8          3.9930    3.4940    0.5840 n         1 MOL     -0.542817
     70 C22         2.8400    4.3490    0.4480 c3        1 MOL      0.097429
     71 C23         1.5880    3.5210    0.2720 c         1 MOL      0.747593
     72 O13         1.5560    2.5110   -0.4530 o         1 MOL     -0.707739
     73 C24         3.0990    5.3630   -0.7200 c3        1 MOL      0.414359
     74 C25         2.0060    6.4100   -0.8370 c3        1 MOL     -0.407949
     75 O14         4.2670    6.0710   -0.5860 oh        1 MOL     -0.570495
     76 H29         3.8550    2.5760    0.1970 hn        1 MOL      0.277162
     77 H30         2.6590    4.7690    1.4440 h1        1 MOL      0.042382
     78 H31         3.1400    4.7130   -1.5930 h1        1 MOL     -0.023521
     79 H32         4.5920    6.3910   -1.4310 ho        1 MOL      0.368716
     80 H33         1.0470    5.8810   -0.7970 hc        1 MOL      0.085346
     81 H34         2.1370    7.2290   -0.1340 hc        1 MOL      0.085346
     82 H35         2.0180    6.7320   -1.8770 hc        1 MOL      0.085346
     83 N9          0.5230    3.8430    0.9720 n         1 MOL     -0.615938
     84 C26        -0.6690    3.0230    1.2030 c3        1 MOL     -0.057319
     85 C27        -1.7090    3.0130    0.0260 c         1 MOL      0.746255
     86 O15        -2.2240    4.0880   -0.3070 o         1 MOL     -0.633604
     87 C28        -1.4700    3.5530    2.4720 c3        1 MOL      0.051394
     88 C29        -0.6390    3.7700    3.7130 c3        1 MOL      0.312634
     89 C30        -2.6210    2.6220    2.8180 c3        1 MOL     -0.160520
     90 C31        -1.2860    4.5100    4.8910 c3        1 MOL     -0.287450
     91 H36         0.4630    4.7440    1.4120 hn        1 MOL      0.289486
     92 H37        -0.2690    2.0330    1.4240 h1        1 MOL      0.192602
     93 H38        -1.8110    4.5320    2.1400 hc        1 MOL     -0.005504
     94 H39         0.2600    4.3320    3.4730 hc        1 MOL     -0.074275
     95 H40        -0.2640    2.8040    4.0530 hc        1 MOL     -0.074275
     96 H41        -2.3110    1.6130    2.5360 hc        1 MOL      0.029352
     97 H42        -2.9130    2.6420    3.8720 hc        1 MOL      0.029352
     98 H43        -3.5040    2.9010    2.2290 hc        1 MOL      0.029352
     99 H44        -1.7680    3.8100    5.5600 hc        1 MOL      0.054686
    100 H45        -0.4910    4.9900    5.4660 hc        1 MOL      0.054686
    101 H46        -2.0680    5.2160    4.6080 hc        1 MOL      0.054686
    102 N10        -1.9590    1.8780   -0.6210 n         1 MOL     -0.136676
    103 C32        -3.0350    1.7530   -1.6240 c3        1 MOL     -0.017839
    104 C33        -4.4210    1.3750   -1.0650 c         1 MOL      0.393419
    105 O16        -4.6330    1.1450    0.1340 o         1 MOL     -0.383859
    106 C34        -2.5820    0.6400   -2.5910 c3        1 MOL     -0.025355
    107 C35        -1.3230    1.0090   -3.3770 c         1 MOL      0.644057
    108 O17        -0.2430    0.7930   -2.7990 o         1 MOL     -0.687613
    109 O18        -1.4360    1.4250   -4.5420 o         1 MOL     -0.687613
    110 H47        -1.6420    1.0010   -0.2110 hn        1 MOL     -0.211904
    111 H48        -3.0330    2.6810   -2.1800 h1        1 MOL      0.088281
    112 H49        -3.4040    0.3640   -3.2530 hc        1 MOL      0.041994
    113 H50        -2.4090   -0.2270   -1.9450 hc        1 MOL      0.041994
    114 N11        -5.4460    1.2210   -1.9280 n         1 MOL     -0.664665
    115 C36        -6.7380    0.9210   -1.3730 c3        1 MOL      0.570119
    116 C37        -6.8320   -0.5260   -0.8150 c         1 MOL      0.260715
    117 O19        -7.4720   -0.6810    0.2540 o         1 MOL     -0.467230
    118 C38        -7.8970    1.1710   -2.3320 c3        1 MOL     -0.272486
    119 C39        -9.3000    1.0550   -1.8350 ca        1 MOL      0.062450
    120 C40        -9.7560    1.3210   -0.5190 ca        1 MOL     -0.095386
    121 C41       -10.2950    0.5990   -2.7690 ca        1 MOL     -0.095386
    122 C42       -11.1100    1.2550   -0.1880 ca        1 MOL     -0.152638
    123 C43       -11.6260    0.3900   -2.4400 ca        1 MOL     -0.152638
    124 C44       -11.9930    0.7670   -1.1050 ca        1 MOL     -0.105723
    125 H51        -5.3720    1.5310   -2.8840 hn        1 MOL      0.332410
    126 H52        -6.9150    1.6030   -0.5400 h1        1 MOL      0.023524
    127 H53        -7.7460    0.5580   -3.2180 hc        1 MOL      0.056836
    128 H54        -7.8200    2.1970   -2.6950 hc        1 MOL      0.056836
    129 H55        -9.0610    1.6660    0.2290 ha        1 MOL      0.088378
    130 H56       -10.0590    0.2280   -3.7540 ha        1 MOL      0.088378
    131 H57       -11.4480    1.5190    0.8040 ha        1 MOL      0.124431
    132 H58       -12.3090   -0.0120   -3.1740 ha        1 MOL      0.124431
    133 H59       -13.0040    0.4540   -0.8570 ha        1 MOL      0.087684
    134 N12        -6.2240   -1.5500   -1.3480 n         1 MOL     -0.101524
    135 C45        -6.1710   -2.8500   -0.6700 c3        1 MOL     -0.037600
    136 C46        -5.3870   -2.8900    0.6310 c         1 MOL      0.334156
    137 O20        -5.7170   -3.6500    1.5080 o         1 MOL     -0.479442
    138 C47        -5.5010   -3.8020   -1.6790 c3        1 MOL      0.012734
    139 C48        -5.8110   -3.2520   -3.0450 c3        1 MOL     -0.148843
    140 C49        -5.6070   -1.7580   -2.6770 c3        1 MOL      0.164785
    141 H60        -7.1640   -3.2000   -0.4010 h1        1 MOL      0.075063
    142 H61        -4.4250   -3.7880   -1.5030 hc        1 MOL      0.040506
    143 H62        -5.7610   -4.8570   -1.5790 hc        1 MOL      0.040506
    144 H63        -5.1160   -3.5110   -3.8450 hc        1 MOL      0.050104
    145 H64        -6.8720   -3.3390   -3.2900 hc        1 MOL      0.050104
    146 H65        -4.5710   -1.4130   -2.7020 h1        1 MOL     -0.008951
    147 H66        -6.0450   -1.1860   -3.5030 h1        1 MOL     -0.008951
    148 N13        -4.3330   -2.0150    0.7830 n         1 MOL     -0.129429
    149 C50        -3.5870   -1.9570    2.0590 c3        1 MOL     -0.162013
    150 C51        -4.4320   -1.1370    3.0780 c         1 MOL      0.446717
    151 O21        -4.3790   -1.3330    4.3210 o         1 MOL     -0.570529
    152 C52        -2.2910   -1.2380    1.7130 c3        1 MOL      0.199759
    153 C53        -1.2710   -2.0740    0.8250 c3        1 MOL     -0.053224
    154 C54        -0.1140   -1.3100    0.2790 c         1 MOL      0.776825
    155 O22        -0.0730   -0.0610    0.3290 o         1 MOL     -0.743626
    156 O23         0.7780   -1.8420   -0.3870 o         1 MOL     -0.743626
    157 H67        -4.1200   -1.3540    0.0580 hn        1 MOL      0.132917
    158 H68        -3.2650   -2.9120    2.4760 h1        1 MOL      0.120300
    159 H69        -1.7870   -1.0300    2.6510 hc        1 MOL     -0.030068
    160 H70        -2.5880   -0.3400    1.1720 hc        1 MOL     -0.030068
    161 H71        -1.7750   -2.5810   -0.0020 hc        1 MOL      0.004857
    162 H72        -0.8550   -2.8900    1.4150 hc        1 MOL      0.004857
    163 N14        -5.1980   -0.1850    2.5700 n         1 MOL      0.063166
    164 C55        -6.1250    0.5010    3.4650 c3        1 MOL     -0.215744
    165 H73        -6.9860    0.8510    2.8970 h1        1 MOL      0.076079
    166 H74        -6.4590   -0.1890    4.2400 h1        1 MOL      0.076079
    167 H75        -5.6240    1.3520    3.9260 h1        1 MOL      0.076079
    168 H76        -5.3250   -0.0430    1.5820 hn        1 MOL      0.005277
    169 Ca1         1.8080    0.1570   -1.6020 Ca        1 MOL      1.718462
@<TRIPOS>BOND
     1    1    2 1   
     2    1    4 1   
     3    1    5 1   
     4    1    6 1   
     5    2    3 2   
     6    2    7 1   
     7    7    8 1   
     8    7   15 1   
     9    8    9 1   
    10    8   11 1   
    11    8   16 1   
    12    9   10 2   
    13    9   19 1   
    14   11   12 1   
    15   11   17 1   
    16   11   18 1   
    17   12   13 1   
    18   12   14 1   
    19   19   20 1   
    20   19   24 1   
    21   20   21 1   
    22   20   23 1   
    23   20   25 1   
    24   21   22 2   
    25   21   29 1   
    26   23   26 1   
    27   23   27 1   
    28   23   28 1   
    29   29   30 1   
    30   29   37 1   
    31   30   31 1   
    32   30   33 1   
    33   30   38 1   
    34   31   32 2   
    35   31   41 1   
    36   33   34 1   
    37   33   39 1   
    38   33   40 1   
    39   34   35 1   
    40   34   36 1   
    41   41   42 1   
    42   41   45 1   
    43   42   43 1   
    44   42   46 1   
    45   42   47 1   
    46   43   44 2   
    47   43   48 1   
    48   48   49 1   
    49   48   56 1   
    50   49   50 1   
    51   49   52 1   
    52   49   57 1   
    53   50   51 2   
    54   50   62 1   
    55   52   53 1   
    56   52   58 1   
    57   52   59 1   
    58   53   54 1   
    59   53   55 2   
    60   54   60 1   
    61   54   61 1   
    62   62   63 1   
    63   62   66 1   
    64   63   64 1   
    65   63   67 1   
    66   63   68 1   
    67   64   65 2   
    68   64   69 1   
    69   69   70 1   
    70   69   76 1   
    71   70   71 1   
    72   70   73 1   
    73   70   77 1   
    74   71   72 2   
    75   71   83 1   
    76   73   74 1   
    77   73   75 1   
    78   73   78 1   
    79   74   80 1   
    80   74   81 1   
    81   74   82 1   
    82   75   79 1   
    83   83   84 1   
    84   83   91 1   
    85   84   85 1   
    86   84   87 1   
    87   84   92 1   
    88   85   86 2   
    89   85  102 1   
    90   87   88 1   
    91   87   89 1   
    92   87   93 1   
    93   88   90 1   
    94   88   94 1   
    95   88   95 1   
    96   89   96 1   
    97   89   97 1   
    98   89   98 1   
    99   90   99 1   
   100   90  100 1   
   101   90  101 1   
   102  102  103 1   
   103  102  110 1   
   104  103  104 1   
   105  103  106 1   
   106  103  111 1   
   107  104  105 2   
   108  104  114 1   
   109  106  107 1   
   110  106  112 1   
   111  106  113 1   
   112  107  108 1   
   113  107  109 1   
   114  114  115 1   
   115  114  125 1   
   116  115  116 1   
   117  115  118 1   
   118  115  126 1   
   119  116  117 2   
   120  116  134 1   
   121  118  119 1   
   122  118  127 1   
   123  118  128 1   
   124  119  120 ar  
   125  119  121 ar  
   126  120  122 ar  
   127  120  129 1   
   128  121  123 ar  
   129  121  130 1   
   130  122  124 ar  
   131  122  131 1   
   132  123  124 ar  
   133  123  132 1   
   134  124  133 1   
   135  134  135 1   
   136  134  140 1   
   137  135  136 1   
   138  135  138 1   
   139  135  141 1   
   140  136  137 2   
   141  136  148 1   
   142  138  139 1   
   143  138  142 1   
   144  138  143 1   
   145  139  140 1   
   146  139  144 1   
   147  139  145 1   
   148  140  146 1   
   149  140  147 1   
   150  148  149 1   
   151  148  157 1   
   152  149  150 1   
   153  149  152 1   
   154  149  158 1   
   155  150  151 2   
   156  150  163 1   
   157  152  153 1   
   158  152  159 1   
   159  152  160 1   
   160  153  154 1   
   161  153  161 1   
   162  153  162 1   
   163  154  155 1   
   164  154  156 1   
   165  163  164 1   
   166  163  168 1   
   167  164  165 1   
   168  164  166 1   
   169  164  167 1   
@<TRIPOS>SUBSTRUCTURE
     1 MOL         1 TEMP              0 ****  ****    0 ROOT
