@<TRIPOS>MOLECULE
MOL
  179   176     1     0     0
SMALL
resp


@<TRIPOS>ATOM
      1 C1          2.0190    2.4180    5.5080 c3        1 MOL     -0.338486
      2 C2          1.4810    2.2280    4.0860 c         1 MOL      0.755031
      3 O1          2.1970    2.3480    3.0550 o         1 MOL     -0.634380
      4 H1          1.1880    2.4110    6.2140 hc        1 MOL      0.089409
      5 H2          2.7060    1.6060    5.7490 hc        1 MOL      0.089409
      6 H3          2.5430    3.3710    5.5740 hc        1 MOL      0.089409
      7 N1          0.2040    1.8940    4.0330 n         1 MOL     -0.590566
      8 C3         -0.5810    1.8050    2.8080 c3        1 MOL      0.058209
      9 C4         -0.6510    3.2040    2.2790 c         1 MOL      0.481826
     10 O2         -1.1030    4.1510    2.9240 o         1 MOL     -0.558766
     11 C5         -1.9980    1.2790    3.1660 c3        1 MOL     -0.148478
     12 C6         -2.8550    1.0690    1.9140 c         1 MOL      0.894680
     13 O3         -4.0400    0.7750    2.0920 o         1 MOL     -0.768850
     14 O4         -2.4360    1.3310    0.7500 o         1 MOL     -0.768850
     15 H4         -0.2690    1.8420    4.9200 hn        1 MOL      0.330302
     16 H5         -0.0290    1.1300    2.1690 h1        1 MOL     -0.001462
     17 H6         -2.5000    2.0660    3.7290 hc        1 MOL      0.045651
     18 H7         -1.9980    0.3650    3.7600 hc        1 MOL      0.045651
     19 N2         -0.1530    3.3300    1.0650 n         1 MOL     -0.025926
     20 C7          0.2230    4.6080    0.4790 c3        1 MOL     -0.494340
     21 C8         -0.9680    5.1160   -0.4200 c         1 MOL      0.664498
     22 O5         -0.9580    6.2870   -0.8060 o         1 MOL     -0.583875
     23 C9          1.5450    4.3790   -0.2760 c3        1 MOL      0.297989
     24 C10         2.2180    5.7450   -0.7850 c3        1 MOL     -0.203897
     25 C11         3.6240    5.4560   -1.2610 c3        1 MOL      0.056505
     26 C12         4.2680    6.6840   -1.9960 c3        1 MOL     -0.053814
     27 N3          5.5290    6.2580   -2.5440 n4        1 MOL     -0.248206
     28 H8          0.2530    2.4770    0.7160 hn        1 MOL      0.259986
     29 H9          0.3850    5.3220    1.2890 h1        1 MOL      0.182560
     30 H10         1.3930    3.7380   -1.1420 hc        1 MOL      0.004316
     31 H11         2.2420    3.8440    0.3760 hc        1 MOL      0.004316
     32 H12         2.2670    6.5110   -0.0060 hc        1 MOL      0.061771
     33 H13         1.6030    6.0310   -1.6370 hc        1 MOL      0.061771
     34 H14         3.4870    4.6100   -1.9330 hc        1 MOL      0.040074
     35 H15         4.2220    5.1960   -0.3810 hc        1 MOL      0.040074
     36 H16         4.4480    7.4480   -1.2400 hx        1 MOL      0.103279
     37 H17         3.5670    7.0300   -2.7500 hx        1 MOL      0.103279
     38 H18         6.2660    6.2120   -1.8480 hn        1 MOL      0.300501
     39 H19         5.4970    5.2830   -2.8070 hn        1 MOL      0.300501
     40 H20         5.9220    6.8760   -3.2380 hn        1 MOL      0.300501
     41 N4         -1.8870    4.2370   -0.8030 n         1 MOL     -0.407931
     42 C13        -3.0710    4.6360   -1.5670 c3        1 MOL      0.196194
     43 C14        -4.3540    4.4330   -0.7970 c         1 MOL      0.456815
     44 O6         -5.2900    5.2000   -1.0980 o         1 MOL     -0.573858
     45 C15        -3.1030    3.9370   -2.9450 c3        1 MOL     -0.180996
     46 C16        -2.9170    2.4510   -2.8120 c         1 MOL      0.643619
     47 O7         -3.6700    1.7960   -2.0320 o         1 MOL     -0.724789
     48 O8         -1.7900    1.9500   -3.0850 o         1 MOL     -0.724789
     49 H21        -1.7760    3.2900   -0.4610 hn        1 MOL      0.131464
     50 H22        -3.1480    5.6940   -1.8180 h1        1 MOL      0.059193
     51 H23        -2.3490    4.3720   -3.5950 hc        1 MOL      0.052169
     52 H24        -4.0520    4.1300   -3.4470 hc        1 MOL      0.052169
     53 N5         -4.4610    3.4980    0.1340 n         1 MOL     -0.258324
     54 C17        -5.6870    3.2550    0.9150 c3        1 MOL     -0.096241
     55 C18        -6.5530    2.0950    0.6480 c         1 MOL      0.509805
     56 O9         -7.5490    1.8700    1.3180 o         1 MOL     -0.591768
     57 H25        -3.6180    2.9460    0.2260 hn        1 MOL      0.160745
     58 H26        -6.3360    4.1320    0.9860 h1        1 MOL      0.107937
     59 H27        -5.3570    3.2030    1.9470 h1        1 MOL      0.107937
     60 N6         -6.1270    1.1980   -0.2220 n         1 MOL     -0.200407
     61 C19        -6.8610   -0.0150   -0.6010 c3        1 MOL     -0.030611
     62 C20        -6.8330   -1.1830    0.3860 c         1 MOL      0.400578
     63 O10        -7.4310   -2.2670    0.1840 o         1 MOL     -0.528489
     64 C21        -6.4800   -0.3690   -1.9980 c3        1 MOL     -0.166389
     65 C22        -5.0750   -0.9570   -2.1690 c         1 MOL      0.580507
     66 N7         -4.6170   -1.1740   -3.3970 n         1 MOL     -0.581427
     67 O11        -4.2370   -1.1130   -1.3020 o         1 MOL     -0.561849
     68 H28        -5.2140    1.2610   -0.6400 hn        1 MOL      0.173649
     69 H29        -7.9060    0.2850   -0.7010 h1        1 MOL      0.107606
     70 H30        -6.5010    0.5370   -2.5930 hc        1 MOL      0.070253
     71 H31        -7.1690   -1.0990   -2.4190 hc        1 MOL      0.070253
     72 H32        -5.2030   -1.0530   -4.2070 hn        1 MOL      0.287642
     73 H33        -3.6750   -1.4940   -3.5640 hn        1 MOL      0.287642
     74 N8         -6.2130   -1.0050    1.5150 n         1 MOL     -0.195897
     75 C23        -6.2190   -1.9060    2.6140 c3        1 MOL     -0.078622
     76 C24        -5.0730   -2.8840    2.6020 c         1 MOL      0.433275
     77 O12        -5.1280   -3.8520    3.3800 o         1 MOL     -0.558148
     78 H34        -5.6850   -0.1510    1.6180 hn        1 MOL      0.313424
     79 H35        -7.1400   -2.4730    2.7170 h1        1 MOL      0.089119
     80 H36        -6.1880   -1.3100    3.5290 h1        1 MOL      0.089119
     81 N9         -4.0610   -2.7340    1.7450 n         1 MOL     -0.098967
     82 C25        -2.8760   -3.6220    1.6530 c3        1 MOL      0.011941
     83 C26        -1.6920   -2.8760    1.1400 c         1 MOL      0.456297
     84 O13        -1.7390   -1.8680    0.5120 o         1 MOL     -0.687603
     85 C27        -3.2530   -4.7790    0.8000 c3        1 MOL     -0.185440
     86 C28        -3.6240   -4.5030   -0.6250 ca        1 MOL      0.032669
     87 C29        -4.9610   -4.4970   -0.9390 ca        1 MOL     -0.114233
     88 C30        -2.6470   -4.4210   -1.6290 ca        1 MOL     -0.114233
     89 C31        -5.3430   -4.2740   -2.2610 ca        1 MOL     -0.325091
     90 C32        -3.0180   -4.3500   -2.9880 ca        1 MOL     -0.325091
     91 C33        -4.3840   -4.2600   -3.3280 ca        1 MOL      0.441698
     92 O14        -4.9050   -4.1390   -4.5890 oh        1 MOL     -0.600719
     93 H37        -4.0060   -1.8870    1.1970 hn        1 MOL      0.121252
     94 H38        -2.7610   -4.0070    2.6680 h1        1 MOL      0.059089
     95 H39        -4.1410   -5.1740    1.3060 hc        1 MOL      0.088438
     96 H40        -2.4530   -5.5130    0.8900 hc        1 MOL      0.088438
     97 H41        -5.7640   -4.3570   -0.2390 ha        1 MOL      0.149848
     98 H42        -1.6200   -4.6010   -1.3640 ha        1 MOL      0.149848
     99 H43        -6.3970   -4.1540   -2.4460 ha        1 MOL      0.134353
    100 H44        -2.2360   -4.3610   -3.7330 ha        1 MOL      0.134353
    101 H45        -5.8660   -4.1010   -4.6430 ho        1 MOL      0.427007
    102 N10        -0.5490   -3.4370    1.4950 n         1 MOL     -0.458884
    103 C34         0.8160   -2.7800    1.5390 c3        1 MOL      0.055913
    104 C35         1.8060   -3.5950    0.6440 c         1 MOL      0.463998
    105 O15         1.7410   -4.8130    0.6970 o         1 MOL     -0.551248
    106 C36         1.3720   -2.5840    3.0070 c3        1 MOL     -0.033204
    107 C37         0.2610   -2.0050    3.9410 c3        1 MOL      0.091537
    108 C38         2.6070   -1.6730    2.9410 c3        1 MOL     -0.158085
    109 C39         0.5260   -2.1330    5.4040 c3        1 MOL     -0.249266
    110 H46        -0.6370   -4.3030    2.0090 hn        1 MOL      0.314281
    111 H47         0.7050   -1.7890    1.0960 h1        1 MOL      0.134881
    112 H48         1.6400   -3.5850    3.3690 hc        1 MOL      0.051396
    113 H49        -0.7330   -2.3710    3.6880 hc        1 MOL      0.027573
    114 H50         0.1430   -0.9250    3.8760 hc        1 MOL      0.027573
    115 H51         3.0540   -1.5560    3.9310 hc        1 MOL      0.032182
    116 H52         3.4010   -2.1820    2.4070 hc        1 MOL      0.032182
    117 H53         2.5490   -0.6640    2.5370 hc        1 MOL      0.032182
    118 H54         0.1840   -1.3130    6.0360 hc        1 MOL      0.055799
    119 H55         0.0580   -3.0850    5.6600 hc        1 MOL      0.055799
    120 H56         1.5920   -2.1960    5.5990 hc        1 MOL      0.055799
    121 N11         2.7200   -2.9830   -0.0870 n         1 MOL     -0.091413
    122 C40         3.8150   -3.6130   -0.7940 c3        1 MOL      0.040126
    123 C41         5.2660   -3.3410   -0.3020 c         1 MOL      0.393220
    124 O16         5.3290   -2.3980    0.5080 o         1 MOL     -0.395951
    125 C42         3.7850   -3.0320   -2.2830 c3        1 MOL     -0.162984
    126 O17         4.2420   -1.7240   -2.3390 oh        1 MOL     -0.275221
    127 H57         2.4300   -2.0220   -0.2740 hn        1 MOL      0.111978
    128 H58         3.6500   -4.6990   -0.7620 h1        1 MOL      0.069446
    129 H59         2.7690   -3.0540   -2.6740 h1        1 MOL      0.062057
    130 H60         4.4010   -3.6420   -2.9490 h1        1 MOL      0.062057
    131 H61         4.0310   -1.3520   -3.2000 ho        1 MOL      0.382536
    132 N12         6.3280   -4.0610   -0.6200 n         1 MOL     -0.367780
    133 C43         7.7140   -3.7430   -0.1780 c3        1 MOL      0.056617
    134 C44         8.1540   -2.2260   -0.4200 c         1 MOL      0.350775
    135 O18         8.9120   -1.5690    0.2930 o         1 MOL     -0.497557
    136 C45         8.6760   -4.6340   -1.0300 c3        1 MOL     -0.130063
    137 H62         6.2250   -4.8710   -1.2200 hn        1 MOL      0.282587
    138 H63         7.8990   -4.0520    0.8630 h1        1 MOL      0.102312
    139 H64         8.7420   -4.2940   -2.0690 hc        1 MOL      0.053732
    140 H65         9.6830   -4.6700   -0.6240 hc        1 MOL      0.053732
    141 H66         8.3350   -5.6640   -1.0240 hc        1 MOL      0.053732
    142 N13         7.6320   -1.6510   -1.4580 n         1 MOL     -0.163372
    143 C46         7.8150   -0.2500   -1.9240 c3        1 MOL      0.042386
    144 C47         6.9230    0.7750   -1.1420 c         1 MOL      0.345472
    145 O19         7.4260    1.7970   -0.6930 o         1 MOL     -0.540900
    146 C48         7.3400   -0.2670   -3.3800 c3        1 MOL     -0.154096
    147 H67         7.0150   -2.2650   -1.9630 hn        1 MOL      0.166669
    148 H68         8.8880   -0.0250   -1.9820 h1        1 MOL      0.116085
    149 H69         7.5710    0.7050   -3.8190 hc        1 MOL      0.038159
    150 H70         7.9860   -0.9690   -3.9140 hc        1 MOL      0.038159
    151 H71         6.3120   -0.5650   -3.5710 hc        1 MOL      0.038159
    152 N14         5.7070    0.5000   -0.9580 n         1 MOL      0.019062
    153 C49         4.9070    1.2580   -0.0110 c3        1 MOL      0.066735
    154 C50         5.3940    1.1760    1.4510 c         1 MOL      0.407335
    155 O20         5.5180    2.2100    2.1410 o         1 MOL     -0.531888
    156 C51         3.3660    0.8480    0.0770 c3        1 MOL      0.098835
    157 C52         2.7210    1.2070   -1.3540 c3        1 MOL     -0.075143
    158 C53         1.2060    0.9210   -1.4000 c         1 MOL      0.735766
    159 O21         0.6390    0.3480   -2.3690 o         1 MOL     -0.778925
    160 O22         0.5860    1.0170   -0.2910 o         1 MOL     -0.778925
    161 H72         5.3130   -0.3760   -1.2800 hn        1 MOL     -0.162831
    162 H73         4.8650    2.2670   -0.4340 h1        1 MOL     -0.067641
    163 H74         2.9280    1.3970    0.9080 hc        1 MOL      0.045463
    164 H75         3.3330   -0.2240    0.2720 hc        1 MOL      0.045463
    165 H76         3.1010    0.6390   -2.2030 hc        1 MOL     -0.040914
    166 H77         2.8430    2.2790   -1.4590 hc        1 MOL     -0.040914
    167 N15         5.8940    0.0020    1.8740 n         1 MOL      0.013468
    168 C54         6.4890   -0.1690    3.1550 c3        1 MOL     -0.305305
    169 H78         5.7200   -0.0930    3.9250 h1        1 MOL      0.105969
    170 H79         6.9600   -1.1500    3.2100 h1        1 MOL      0.105969
    171 H80         7.2400    0.6050    3.3140 h1        1 MOL      0.105969
    172 H81         5.7720   -0.8450    1.3330 hn        1 MOL      0.113482
    173 Ca1        -1.7220    0.1220   -1.2870 Ca        1 MOL      1.805051
    174 O23        -1.7000   -1.1470   -3.5820 oh        1 MOL     -0.704786
    175 H82        -1.6400   -0.9630   -4.5230 ho        1 MOL      0.364097
    176 H83        -0.9850   -1.7800   -3.4250 ho        1 MOL      0.364097
    177 O24         0.4050   -2.2880   -1.7570 oh        1 MOL     -0.704786
    178 H84         0.8290   -1.7010   -2.3820 ho        1 MOL      0.364097
    179 H85         0.3260   -3.1220   -2.2260 ho        1 MOL      0.364097
@<TRIPOS>BOND
     1    1    2 1   
     2    1    4 1   
     3    1    5 1   
     4    1    6 1   
     5    2    3 2   
     6    2    7 1   
     7    7    8 1   
     8    7   15 1   
     9    8    9 1   
    10    8   11 1   
    11    8   16 1   
    12    9   10 2   
    13    9   19 1   
    14   11   12 1   
    15   11   17 1   
    16   11   18 1   
    17   12   13 1   
    18   12   14 1   
    19   19   20 1   
    20   19   28 1   
    21   20   21 1   
    22   20   23 1   
    23   20   29 1   
    24   21   22 2   
    25   21   41 1   
    26   23   24 1   
    27   23   30 1   
    28   23   31 1   
    29   24   25 1   
    30   24   32 1   
    31   24   33 1   
    32   25   26 1   
    33   25   34 1   
    34   25   35 1   
    35   26   27 1   
    36   26   36 1   
    37   26   37 1   
    38   27   38 1   
    39   27   39 1   
    40   27   40 1   
    41   41   42 1   
    42   41   49 1   
    43   42   43 1   
    44   42   45 1   
    45   42   50 1   
    46   43   44 2   
    47   43   53 1   
    48   45   46 1   
    49   45   51 1   
    50   45   52 1   
    51   46   47 1   
    52   46   48 1   
    53   53   54 1   
    54   53   57 1   
    55   54   55 1   
    56   54   58 1   
    57   54   59 1   
    58   55   56 2   
    59   55   60 1   
    60   60   61 1   
    61   60   68 1   
    62   61   62 1   
    63   61   64 1   
    64   61   69 1   
    65   62   63 2   
    66   62   74 1   
    67   64   65 1   
    68   64   70 1   
    69   64   71 1   
    70   65   66 1   
    71   65   67 2   
    72   66   72 1   
    73   66   73 1   
    74   74   75 1   
    75   74   78 1   
    76   75   76 1   
    77   75   79 1   
    78   75   80 1   
    79   76   77 2   
    80   76   81 1   
    81   81   82 1   
    82   81   93 1   
    83   82   83 1   
    84   82   85 1   
    85   82   94 1   
    86   83   84 2   
    87   83  102 1   
    88   85   86 1   
    89   85   95 1   
    90   85   96 1   
    91   86   87 ar  
    92   86   88 ar  
    93   87   89 ar  
    94   87   97 1   
    95   88   90 ar  
    96   88   98 1   
    97   89   91 ar  
    98   89   99 1   
    99   90   91 ar  
   100   90  100 1   
   101   91   92 1   
   102   92  101 1   
   103  102  103 1   
   104  102  110 1   
   105  103  104 1   
   106  103  106 1   
   107  103  111 1   
   108  104  105 2   
   109  104  121 1   
   110  106  107 1   
   111  106  108 1   
   112  106  112 1   
   113  107  109 1   
   114  107  113 1   
   115  107  114 1   
   116  108  115 1   
   117  108  116 1   
   118  108  117 1   
   119  109  118 1   
   120  109  119 1   
   121  109  120 1   
   122  121  122 1   
   123  121  127 1   
   124  122  123 1   
   125  122  125 1   
   126  122  128 1   
   127  123  124 2   
   128  123  132 1   
   129  125  126 1   
   130  125  129 1   
   131  125  130 1   
   132  126  131 1   
   133  132  133 1   
   134  132  137 1   
   135  133  134 1   
   136  133  136 1   
   137  133  138 1   
   138  134  135 2   
   139  134  142 1   
   140  136  139 1   
   141  136  140 1   
   142  136  141 1   
   143  142  143 1   
   144  142  147 1   
   145  143  144 1   
   146  143  146 1   
   147  143  148 1   
   148  144  145 2   
   149  144  152 1   
   150  146  149 1   
   151  146  150 1   
   152  146  151 1   
   153  152  153 1   
   154  152  161 1   
   155  153  154 1   
   156  153  156 1   
   157  153  162 1   
   158  154  155 2   
   159  154  167 1   
   160  156  157 1   
   161  156  163 1   
   162  156  164 1   
   163  157  158 1   
   164  157  165 1   
   165  157  166 1   
   166  158  159 1   
   167  158  160 1   
   168  167  168 1   
   169  167  172 1   
   170  168  169 1   
   171  168  170 1   
   172  168  171 1   
   173  174  175 1   
   174  174  176 1   
   175  177  178 1   
   176  177  179 1   
@<TRIPOS>SUBSTRUCTURE
     1 MOL         1 TEMP              0 ****  ****    0 ROOT
