@<TRIPOS>MOLECULE
MOL
  179   176     1     0     0
SMALL
resp


@<TRIPOS>ATOM
      1 C1          0.2400    4.7440    6.4120 c3        1 MOL     -0.349820
      2 C2          0.5110    4.0220    5.0320 c         1 MOL      0.672542
      3 O1          1.5800    4.1530    4.4550 o         1 MOL     -0.549217
      4 H1         -0.4450    4.1420    7.0070 hc        1 MOL      0.092108
      5 H2          1.1800    4.8640    6.9500 hc        1 MOL      0.092108
      6 H3         -0.2020    5.7240    6.2290 hc        1 MOL      0.092108
      7 N1         -0.5120    3.4850    4.4110 n         1 MOL     -0.586231
      8 C3         -0.4530    2.9500    3.0860 c3        1 MOL      0.049427
      9 C4         -0.5440    4.0750    1.9830 c         1 MOL      0.778976
     10 O2         -1.1220    5.1380    2.1850 o         1 MOL     -0.556398
     11 C5         -1.6050    1.9000    2.8900 c3        1 MOL     -0.303714
     12 C6         -1.6360    1.1870    1.4880 c         1 MOL      0.754767
     13 O3         -2.6660    0.6840    1.0260 o         1 MOL     -0.698421
     14 O4         -0.5520    0.9900    0.8850 o         1 MOL     -0.698421
     15 H4         -1.3510    3.3000    4.9380 hn        1 MOL      0.325126
     16 H5          0.5250    2.5200    2.8500 h1        1 MOL      0.069962
     17 H6         -2.5750    2.3780    3.0150 hc        1 MOL      0.090270
     18 H7         -1.5630    1.1730    3.7010 hc        1 MOL      0.090270
     19 N2         -0.0140    3.8180    0.7450 n         1 MOL     -0.607821
     20 C7          0.0430    4.8430   -0.2610 c3        1 MOL     -0.073152
     21 C8         -1.3060    5.2770   -0.8680 c         1 MOL      0.426083
     22 O5         -1.5110    6.4220   -1.2880 o         1 MOL     -0.554577
     23 C9          0.9560    4.3920   -1.3990 c3        1 MOL      0.227320
     24 C10         1.7590    5.5190   -2.0540 c3        1 MOL     -0.090779
     25 C11         2.8950    5.0820   -2.9610 c3        1 MOL      0.042978
     26 C12         3.2580    6.3070   -3.8750 c3        1 MOL      0.034199
     27 N3          4.0390    5.9240   -4.9540 n4        1 MOL     -0.303146
     28 H8          0.1180    2.8640    0.4370 hn        1 MOL      0.293768
     29 H9          0.4800    5.7520    0.1340 h1        1 MOL      0.136664
     30 H10         0.3930    3.8820   -2.1880 hc        1 MOL     -0.009059
     31 H11         1.7600    3.7120   -1.1030 hc        1 MOL     -0.009059
     32 H12         2.1300    6.1570   -1.2470 hc        1 MOL      0.000920
     33 H13         1.0360    6.1470   -2.5720 hc        1 MOL      0.000920
     34 H14         2.4620    4.2540   -3.5260 hc        1 MOL      0.030526
     35 H15         3.8130    4.7720   -2.4560 hc        1 MOL      0.030526
     36 H16         3.7890    7.0460   -3.2610 hx        1 MOL      0.080803
     37 H17         2.3500    6.7640   -4.2650 hx        1 MOL      0.080803
     38 H18         4.7630    5.3000   -4.6450 hn        1 MOL      0.310115
     39 H19         3.4780    5.4500   -5.6510 hn        1 MOL      0.310115
     40 H20         4.4860    6.6900   -5.4410 hn        1 MOL      0.310115
     41 N4         -2.3210    4.4270   -0.8170 n         1 MOL     -0.173428
     42 C13        -3.7200    4.6590   -1.1550 c3        1 MOL      0.055034
     43 C14        -4.7650    4.2410   -0.0910 c         1 MOL      0.475497
     44 O6         -5.8830    4.6750   -0.1370 o         1 MOL     -0.540731
     45 C15        -4.0550    3.9330   -2.4770 c3        1 MOL     -0.380726
     46 C16        -3.8370    2.4240   -2.4500 c         1 MOL      0.826542
     47 O7         -3.3900    1.8130   -1.4330 o         1 MOL     -0.729956
     48 O8         -4.1700    1.8030   -3.5240 o         1 MOL     -0.729956
     49 H21        -2.0870    3.4900   -0.5400 hn        1 MOL      0.199004
     50 H22        -3.9210    5.7220   -1.3060 h1        1 MOL      0.113075
     51 H23        -3.5380    4.3070   -3.3600 hc        1 MOL      0.115674
     52 H24        -5.1340    4.0170   -2.6480 hc        1 MOL      0.115674
     53 N5         -4.4770    3.3710    0.8650 n         1 MOL     -0.142925
     54 C17        -5.4640    2.7690    1.7820 c3        1 MOL     -0.129056
     55 C18        -6.2610    1.5720    1.2780 c         1 MOL      0.516774
     56 O9         -7.3680    1.3310    1.8520 o         1 MOL     -0.587296
     57 H25        -3.5820    2.9210    0.7250 hn        1 MOL     -0.092279
     58 H26        -6.1790    3.5820    1.9470 h1        1 MOL      0.110069
     59 H27        -5.1630    2.5110    2.8000 h1        1 MOL      0.110069
     60 N6         -5.8610    0.8320    0.2060 n         1 MOL     -0.178387
     61 C19        -6.6450   -0.2050   -0.5220 c3        1 MOL     -0.175220
     62 C20        -6.9750   -1.4630    0.2630 c         1 MOL      0.445765
     63 O10        -7.7120   -2.3370   -0.1910 o         1 MOL     -0.537346
     64 C21        -6.2000   -0.4210   -1.9680 c3        1 MOL     -0.123053
     65 C22        -4.9300   -1.1880   -2.1180 c         1 MOL      0.639681
     66 N7         -4.7160   -1.7640   -3.2190 n         1 MOL     -0.731620
     67 O11        -4.1690   -1.3120   -1.1860 o         1 MOL     -0.475285
     68 H28        -4.9030    1.0270   -0.0570 hn        1 MOL      0.192681
     69 H29        -7.5580    0.2920   -0.8410 h1        1 MOL      0.152012
     70 H30        -6.1410    0.5040   -2.5390 hc        1 MOL      0.075785
     71 H31        -6.9850   -0.9860   -2.4820 hc        1 MOL      0.075785
     72 H32        -5.3290   -1.6550   -4.0210 hn        1 MOL      0.343171
     73 H33        -3.8190   -2.2060   -3.3390 hn        1 MOL      0.343171
     74 N8         -6.4640   -1.6560    1.4620 n         1 MOL     -0.143194
     75 C23        -6.4250   -2.8520    2.2610 c3        1 MOL     -0.240461
     76 C24        -5.1610   -3.6420    2.3510 c         1 MOL      0.486878
     77 O12        -5.1400   -4.7260    2.9470 o         1 MOL     -0.559179
     78 H34        -5.8450   -0.9140    1.7490 hn        1 MOL      0.203179
     79 H35        -7.1610   -3.5830    1.9240 h1        1 MOL      0.134018
     80 H36        -6.7270   -2.4750    3.2490 h1        1 MOL      0.134018
     81 N9         -4.1340   -3.2880    1.6010 n         1 MOL     -0.061578
     82 C25        -2.8570   -3.9980    1.7720 c3        1 MOL     -0.186063
     83 C26        -1.6780   -3.1130    1.3410 c         1 MOL      0.589834
     84 O13        -1.7950   -2.1730    0.5520 o         1 MOL     -0.553282
     85 C27        -2.7320   -5.3730    1.1200 c3        1 MOL      0.082437
     86 C28        -2.7340   -5.3480   -0.4010 ca        1 MOL      0.045718
     87 C29        -1.5880   -5.7470   -1.0660 ca        1 MOL     -0.173804
     88 C30        -3.9180   -5.1660   -1.1240 ca        1 MOL     -0.173804
     89 C31        -1.5530   -5.9610   -2.4700 ca        1 MOL     -0.255586
     90 C32        -3.8850   -5.3100   -2.5380 ca        1 MOL     -0.255586
     91 C33        -2.7450   -5.8070   -3.1840 ca        1 MOL      0.340559
     92 O14        -2.7070   -5.8210   -4.4950 oh        1 MOL     -0.522400
     93 H37        -4.2100   -2.4430    1.0590 hn        1 MOL      0.075911
     94 H38        -2.7860   -4.2480    2.8400 h1        1 MOL      0.090948
     95 H39        -3.5320   -6.0300    1.4550 hc        1 MOL      0.026073
     96 H40        -1.8230   -5.9160    1.3690 hc        1 MOL      0.026073
     97 H41        -0.6680   -5.8480   -0.5040 ha        1 MOL      0.154544
     98 H42        -4.8400   -4.9280   -0.6180 ha        1 MOL      0.154544
     99 H43        -0.6440   -6.3010   -2.9420 ha        1 MOL      0.136700
    100 H44        -4.7590   -5.0310   -3.1150 ha        1 MOL      0.136700
    101 H45        -3.5530   -5.7850   -4.9540 ho        1 MOL      0.398785
    102 N10        -0.4440   -3.4780    1.8320 n         1 MOL     -0.570853
    103 C34         0.8410   -2.7850    1.6830 c3        1 MOL      0.300429
    104 C35         2.0490   -3.7470    1.4370 c         1 MOL      0.313038
    105 O15         1.9690   -4.9710    1.7120 o         1 MOL     -0.513394
    106 C36         1.0550   -1.8820    2.8850 c3        1 MOL     -0.025915
    107 C37         2.2380   -0.8660    2.6660 c3        1 MOL      0.424727
    108 C38         1.2970   -2.7440    4.1810 c3        1 MOL     -0.397089
    109 C39         2.4110    0.0330    3.8750 c3        1 MOL     -0.507277
    110 H46        -0.3970   -4.2840    2.4280 hn        1 MOL      0.327368
    111 H47         0.7510   -2.1180    0.8340 h1        1 MOL     -0.046274
    112 H48         0.1560   -1.2880    3.0720 hc        1 MOL      0.061620
    113 H49         2.0940   -0.3370    1.7230 hc        1 MOL     -0.095771
    114 H50         3.1820   -1.4090    2.6490 hc        1 MOL     -0.095771
    115 H51         1.4480   -2.1840    5.1040 hc        1 MOL      0.097852
    116 H52         0.4610   -3.4240    4.3510 hc        1 MOL      0.097852
    117 H53         2.2390   -3.2730    4.0270 hc        1 MOL      0.097852
    118 H54         2.8460    0.9450    3.4570 hc        1 MOL      0.115148
    119 H55         1.4200    0.2130    4.2960 hc        1 MOL      0.115148
    120 H56         2.9800   -0.4620    4.6630 hc        1 MOL      0.115148
    121 N11         3.0920   -3.1340    0.8120 n         1 MOL     -0.098213
    122 C40         4.2540   -3.7810    0.2530 c3        1 MOL      0.081737
    123 C41         5.5560   -3.0950    0.6630 c         1 MOL      0.358274
    124 O16         5.4430   -1.9880    1.1920 o         1 MOL     -0.379194
    125 C42         4.1950   -3.6950   -1.2950 c3        1 MOL     -0.151528
    126 O17         4.3300   -2.3980   -1.7350 oh        1 MOL     -0.427642
    127 H57         3.0100   -2.1400    0.6400 hn        1 MOL      0.108823
    128 H58         4.2520   -4.8150    0.5780 h1        1 MOL      0.085683
    129 H59         3.2390   -4.0350   -1.6840 h1        1 MOL      0.083259
    130 H60         5.0560   -4.2660   -1.6630 h1        1 MOL      0.083259
    131 H61         4.0980   -2.3170   -2.6590 ho        1 MOL      0.416797
    132 N12         6.7960   -3.6020    0.3650 n         1 MOL     -0.443148
    133 C43         8.0520   -2.9370    0.7710 c3        1 MOL      0.158442
    134 C44         8.2850   -1.5690    0.1510 c         1 MOL      0.403698
    135 O18         8.6700   -0.5380    0.7390 o         1 MOL     -0.491045
    136 C45         9.2230   -3.8750    0.6170 c3        1 MOL     -0.288624
    137 H62         6.8750   -4.4930   -0.1080 hn        1 MOL      0.299525
    138 H63         8.0710   -2.6800    1.8310 h1        1 MOL      0.085494
    139 H64         9.6290   -3.8430   -0.3910 hc        1 MOL      0.090346
    140 H65         9.9610   -3.5060    1.3270 hc        1 MOL      0.090346
    141 H66         9.0310   -4.9090    0.9000 hc        1 MOL      0.090346
    142 N13         7.8440   -1.4640   -1.1300 n         1 MOL     -0.342864
    143 C46         7.9080   -0.2680   -1.9200 c3        1 MOL      0.184844
    144 C47         6.9210    0.7690   -1.4150 c         1 MOL      0.302715
    145 O19         7.2460    1.9700   -1.3260 o         1 MOL     -0.510848
    146 C48         7.6430   -0.5940   -3.3990 c3        1 MOL     -0.336841
    147 H67         7.5690   -2.3440   -1.5420 hn        1 MOL      0.243263
    148 H68         8.9070    0.1740   -1.9030 h1        1 MOL      0.076449
    149 H69         7.7660    0.3210   -3.9590 hc        1 MOL      0.088192
    150 H70         8.3690   -1.3650   -3.6830 hc        1 MOL      0.088192
    151 H71         6.5910   -0.8580   -3.5340 hc        1 MOL      0.088192
    152 N14         5.7170    0.3310   -0.9460 n         1 MOL     -0.022255
    153 C49         4.7500    1.2590   -0.4340 c3        1 MOL     -0.087566
    154 C50         4.9360    1.6730    1.0280 c         1 MOL      0.397932
    155 O20         4.6690    2.8250    1.4120 o         1 MOL     -0.551600
    156 C51         3.2620    0.7750   -0.5640 c3        1 MOL      0.135595
    157 C52         2.7370    0.7570   -2.0410 c3        1 MOL      0.009907
    158 C53         1.2260    0.5380   -2.0610 c         1 MOL      0.698573
    159 O21         0.8680   -0.6780   -1.8550 o         1 MOL     -0.749608
    160 O22         0.3370    1.4150   -2.1030 o         1 MOL     -0.749608
    161 H72         5.4960   -0.6460   -1.1060 hn        1 MOL      0.054452
    162 H73         4.8570    2.1750   -1.0130 h1        1 MOL      0.070113
    163 H74         2.6180    1.4520    0.0030 hc        1 MOL      0.023759
    164 H75         3.2870   -0.2550   -0.2080 hc        1 MOL      0.023759
    165 H76         3.2890   -0.0450   -2.5280 hc        1 MOL     -0.092166
    166 H77         2.9430    1.7710   -2.4120 hc        1 MOL     -0.092166
    167 N15         5.5230    0.8050    1.8040 n         1 MOL      0.040761
    168 C54         6.1860    0.9840    3.0690 c3        1 MOL     -0.155415
    169 H78         6.7330    1.9270    3.0610 h1        1 MOL      0.068037
    170 H79         5.4460    1.0010    3.8680 h1        1 MOL      0.068037
    171 H80         6.8820    0.1620    3.2340 h1        1 MOL      0.068037
    172 H81         5.5610   -0.1420    1.4420 hn        1 MOL      0.073741
    173 Ca1        -1.7820   -0.1570   -1.2590 Ca        1 MOL      1.718586
    174 O23        -1.5150   -2.6880   -2.5810 oh        1 MOL     -0.833564
    175 H82        -0.6180   -2.5200   -2.8730 ho        1 MOL      0.390142
    176 H83        -1.5250   -3.6310   -2.4080 ho        1 MOL      0.390142
    177 O24        -2.1660    0.1280   -3.8040 oh        1 MOL     -0.833564
    178 H84        -2.3060   -0.5180   -4.4960 ho        1 MOL      0.390142
    179 H85        -2.9030    0.7340   -3.8940 ho        1 MOL      0.390142
@<TRIPOS>BOND
     1    1    2 1   
     2    1    4 1   
     3    1    5 1   
     4    1    6 1   
     5    2    3 2   
     6    2    7 1   
     7    7    8 1   
     8    7   15 1   
     9    8    9 1   
    10    8   11 1   
    11    8   16 1   
    12    9   10 2   
    13    9   19 1   
    14   11   12 1   
    15   11   17 1   
    16   11   18 1   
    17   12   13 1   
    18   12   14 1   
    19   19   20 1   
    20   19   28 1   
    21   20   21 1   
    22   20   23 1   
    23   20   29 1   
    24   21   22 2   
    25   21   41 1   
    26   23   24 1   
    27   23   30 1   
    28   23   31 1   
    29   24   25 1   
    30   24   32 1   
    31   24   33 1   
    32   25   26 1   
    33   25   34 1   
    34   25   35 1   
    35   26   27 1   
    36   26   36 1   
    37   26   37 1   
    38   27   38 1   
    39   27   39 1   
    40   27   40 1   
    41   41   42 1   
    42   41   49 1   
    43   42   43 1   
    44   42   45 1   
    45   42   50 1   
    46   43   44 2   
    47   43   53 1   
    48   45   46 1   
    49   45   51 1   
    50   45   52 1   
    51   46   47 1   
    52   46   48 1   
    53   53   54 1   
    54   53   57 1   
    55   54   55 1   
    56   54   58 1   
    57   54   59 1   
    58   55   56 2   
    59   55   60 1   
    60   60   61 1   
    61   60   68 1   
    62   61   62 1   
    63   61   64 1   
    64   61   69 1   
    65   62   63 2   
    66   62   74 1   
    67   64   65 1   
    68   64   70 1   
    69   64   71 1   
    70   65   66 1   
    71   65   67 2   
    72   66   72 1   
    73   66   73 1   
    74   74   75 1   
    75   74   78 1   
    76   75   76 1   
    77   75   79 1   
    78   75   80 1   
    79   76   77 2   
    80   76   81 1   
    81   81   82 1   
    82   81   93 1   
    83   82   83 1   
    84   82   85 1   
    85   82   94 1   
    86   83   84 2   
    87   83  102 1   
    88   85   86 1   
    89   85   95 1   
    90   85   96 1   
    91   86   87 ar  
    92   86   88 ar  
    93   87   89 ar  
    94   87   97 1   
    95   88   90 ar  
    96   88   98 1   
    97   89   91 ar  
    98   89   99 1   
    99   90   91 ar  
   100   90  100 1   
   101   91   92 1   
   102   92  101 1   
   103  102  103 1   
   104  102  110 1   
   105  103  104 1   
   106  103  106 1   
   107  103  111 1   
   108  104  105 2   
   109  104  121 1   
   110  106  107 1   
   111  106  108 1   
   112  106  112 1   
   113  107  109 1   
   114  107  113 1   
   115  107  114 1   
   116  108  115 1   
   117  108  116 1   
   118  108  117 1   
   119  109  118 1   
   120  109  119 1   
   121  109  120 1   
   122  121  122 1   
   123  121  127 1   
   124  122  123 1   
   125  122  125 1   
   126  122  128 1   
   127  123  124 2   
   128  123  132 1   
   129  125  126 1   
   130  125  129 1   
   131  125  130 1   
   132  126  131 1   
   133  132  133 1   
   134  132  137 1   
   135  133  134 1   
   136  133  136 1   
   137  133  138 1   
   138  134  135 2   
   139  134  142 1   
   140  136  139 1   
   141  136  140 1   
   142  136  141 1   
   143  142  143 1   
   144  142  147 1   
   145  143  144 1   
   146  143  146 1   
   147  143  148 1   
   148  144  145 2   
   149  144  152 1   
   150  146  149 1   
   151  146  150 1   
   152  146  151 1   
   153  152  153 1   
   154  152  161 1   
   155  153  154 1   
   156  153  156 1   
   157  153  162 1   
   158  154  155 2   
   159  154  167 1   
   160  156  157 1   
   161  156  163 1   
   162  156  164 1   
   163  157  158 1   
   164  157  165 1   
   165  157  166 1   
   166  158  159 1   
   167  158  160 1   
   168  167  168 1   
   169  167  172 1   
   170  168  169 1   
   171  168  170 1   
   172  168  171 1   
   173  174  175 1   
   174  174  176 1   
   175  177  178 1   
   176  177  179 1   
@<TRIPOS>SUBSTRUCTURE
     1 MOL         1 TEMP              0 ****  ****    0 ROOT
