@<TRIPOS>MOLECULE
MOL
  189   185     1     0     0
SMALL
resp


@<TRIPOS>ATOM
      1 C1         -0.2130    2.3640    6.0580 c3        1 MOL     -0.279984
      2 C2         -0.4020    1.8970    4.5730 c         1 MOL      0.742887
      3 O1          0.4120    2.2020    3.7170 o         1 MOL     -0.627110
      4 H1         -0.0430    3.4400    6.0800 hc        1 MOL      0.069984
      5 H2         -1.1090    2.1270    6.6300 hc        1 MOL      0.069984
      6 H3          0.6440    1.8520    6.4940 hc        1 MOL      0.069984
      7 N1         -1.4960    1.2060    4.2590 n         1 MOL     -0.604363
      8 C3         -1.9330    1.0760    2.9030 c3        1 MOL      0.021446
      9 C4         -2.4320    2.4090    2.4520 c         1 MOL      0.689997
     10 O2         -3.1790    3.1530    3.1150 o         1 MOL     -0.585376
     11 C5         -3.0850    0.1050    2.8280 c3        1 MOL     -0.152385
     12 C6         -3.8130   -0.0040    1.4340 c         1 MOL      0.655413
     13 O3         -3.1240    0.1860    0.4510 o         1 MOL     -0.610832
     14 O4         -5.0700   -0.2690    1.3320 o         1 MOL     -0.610832
     15 H4         -2.0950    0.9830    5.0330 hn        1 MOL      0.345001
     16 H5         -1.0810    0.7530    2.3100 h1        1 MOL      0.015345
     17 H6         -3.8510    0.4160    3.5300 hc        1 MOL      0.031431
     18 H7         -2.7610   -0.9080    3.0710 hc        1 MOL      0.031431
     19 N2         -1.8150    2.9060    1.3480 n         1 MOL     -0.458626
     20 C7         -1.8250    4.3500    0.9100 c3        1 MOL      0.007678
     21 C8         -2.8200    4.5680   -0.1160 c         1 MOL      0.542336
     22 O5         -3.4860    5.6130   -0.1790 o         1 MOL     -0.614656
     23 C9         -0.3640    4.8960    0.6290 c3        1 MOL     -0.001998
     24 C10        -0.2400    6.3320    0.1180 c3        1 MOL     -0.022411
     25 C11        -0.5100    7.3390    1.2600 c3        1 MOL     -0.197422
     26 C12        -0.8680    8.7030    0.5790 c3        1 MOL      0.111339
     27 N3         -1.3020    9.7750    1.5730 n4        1 MOL     -0.378688
     28 H8         -1.3200    2.2580    0.7540 hn        1 MOL      0.318293
     29 H9         -2.1550    4.8860    1.8070 h1        1 MOL      0.068716
     30 H10         0.0900    4.2360   -0.1190 hc        1 MOL      0.055560
     31 H11         0.2240    4.8470    1.5450 hc        1 MOL      0.055560
     32 H12        -1.0070    6.3000   -0.6580 hc        1 MOL      0.008482
     33 H13         0.7110    6.4620   -0.3850 hc        1 MOL      0.008482
     34 H14         0.4560    7.2910    1.7810 hc        1 MOL      0.094289
     35 H15        -1.3240    6.9400    1.8540 hc        1 MOL      0.094289
     36 H16        -1.6650    8.6120   -0.1660 hx        1 MOL      0.075885
     37 H17         0.0200    9.0900    0.0660 hx        1 MOL      0.075885
     38 H18        -2.1870    9.5340    1.9980 hn        1 MOL      0.327670
     39 H19        -0.5960    9.8850    2.2940 hn        1 MOL      0.327670
     40 H20        -1.4630   10.6560    1.1080 hn        1 MOL      0.327670
     41 N4         -3.1590    3.6220   -0.9200 n         1 MOL     -0.311008
     42 C13        -4.0850    3.7390   -2.0010 c3        1 MOL      0.118600
     43 C14        -5.4710    3.0920   -1.8380 c         1 MOL      0.470652
     44 O6         -6.4180    3.4790   -2.5480 o         1 MOL     -0.544412
     45 C15        -3.4750    3.4080   -3.3840 c3        1 MOL     -0.389063
     46 C16        -2.6990    2.0990   -3.3920 c         1 MOL      0.871798
     47 O7         -2.8230    1.2550   -2.4520 o         1 MOL     -0.752084
     48 O8         -1.8930    1.7920   -4.3380 o         1 MOL     -0.752084
     49 H21        -2.7230    2.7210   -0.7680 hn        1 MOL      0.154434
     50 H22        -4.3580    4.7920   -2.0540 h1        1 MOL      0.075199
     51 H23        -2.8700    4.2470   -3.7350 hc        1 MOL      0.097135
     52 H24        -4.2410    3.2610   -4.1380 hc        1 MOL      0.097135
     53 N5         -5.6670    2.2780   -0.7880 n         1 MOL     -0.166351
     54 C17        -6.9030    1.6070   -0.3500 c3        1 MOL     -0.241914
     55 C18        -7.2170    0.4250   -1.2580 c         1 MOL      0.652196
     56 O9         -8.1600    0.4940   -2.0370 o         1 MOL     -0.595268
     57 H25        -4.8600    1.9920   -0.2530 hn        1 MOL      0.172172
     58 H26        -7.6880    2.3650   -0.4380 h1        1 MOL      0.097646
     59 H27        -6.7310    1.2110    0.6510 h1        1 MOL      0.097646
     60 N6         -6.5400   -0.6660   -1.1250 n         1 MOL     -0.236278
     61 C19        -6.8630   -1.9620   -1.6960 c3        1 MOL      0.015548
     62 C20        -6.7870   -3.0370   -0.5510 c         1 MOL      0.387546
     63 O10        -7.1970   -4.2020   -0.6930 o         1 MOL     -0.513906
     64 C21        -5.8290   -2.3330   -2.7830 c3        1 MOL     -0.172836
     65 C22        -4.3970   -2.1840   -2.2970 c         1 MOL      0.757400
     66 O11        -3.4750   -1.7330   -3.0380 o         1 MOL     -0.742814
     67 O12        -4.0040   -2.5440   -1.1720 o         1 MOL     -0.742814
     68 H28        -5.8750   -0.6310   -0.3650 hn        1 MOL      0.070214
     69 H29        -7.8250   -1.9490   -2.1950 h1        1 MOL      0.097276
     70 H30        -5.9040   -1.6060   -3.5890 hc        1 MOL      0.066771
     71 H31        -5.8980   -3.3320   -3.2210 hc        1 MOL      0.066771
     72 N7         -6.3720   -2.6790    0.7090 n         1 MOL     -0.280185
     73 C23        -6.2320   -3.6040    1.8410 c3        1 MOL     -0.096263
     74 C24        -4.9030   -4.4070    1.9890 c         1 MOL      0.449462
     75 O13        -4.7700   -5.4150    2.6960 o         1 MOL     -0.565542
     76 H32        -6.0160   -1.7470    0.9040 hn        1 MOL      0.229593
     77 H33        -6.9910   -4.3850    1.7810 h1        1 MOL      0.089303
     78 H34        -6.3900   -3.1030    2.7990 h1        1 MOL      0.089303
     79 N8         -3.8780   -4.0350    1.1930 n         1 MOL     -0.096499
     80 C25        -2.5820   -4.7280    1.1640 c3        1 MOL     -0.274591
     81 C26        -1.4460   -3.7070    1.0670 c         1 MOL      0.707684
     82 O14        -1.6600   -2.4840    0.7470 o         1 MOL     -0.678432
     83 C27        -2.5180   -5.5980   -0.0400 c3        1 MOL      0.487499
     84 C28        -3.5470   -6.7400   -0.1540 c3        1 MOL     -0.426176
     85 O15        -2.5780   -4.8900   -1.2890 oh        1 MOL     -0.604916
     86 H35        -4.0470   -3.1700    0.7050 hn        1 MOL      0.180619
     87 H36        -2.5280   -5.3340    2.0660 h1        1 MOL      0.110122
     88 H37        -1.5900   -6.1730    0.0530 h1        1 MOL     -0.014903
     89 H38        -3.2990   -4.2790   -1.1420 ho        1 MOL      0.393110
     90 H39        -3.7070   -7.3200    0.7530 hc        1 MOL      0.109391
     91 H40        -4.4780   -6.2880   -0.4850 hc        1 MOL      0.109391
     92 H41        -3.1510   -7.4120   -0.9170 hc        1 MOL      0.109391
     93 N9         -0.2000   -4.0510    1.4450 n         1 MOL     -0.591152
     94 C29         1.0020   -3.1660    1.6050 c3        1 MOL      0.124528
     95 C30         2.1380   -3.6390    0.6660 c         1 MOL      0.474879
     96 O16         2.7180   -4.7290    0.7610 o         1 MOL     -0.556373
     97 C31         1.4420   -3.0130    3.1020 c3        1 MOL     -0.063440
     98 C32         0.5000   -2.0000    3.7860 c3        1 MOL      0.238866
     99 C33         2.9160   -2.6190    3.1650 c3        1 MOL     -0.086022
    100 C34         0.9600   -1.5450    5.1570 c3        1 MOL     -0.250519
    101 H42        -0.0550   -4.9770    1.8270 hn        1 MOL      0.307651
    102 H43         0.8480   -2.1490    1.2360 h1        1 MOL      0.049439
    103 H44         1.3190   -3.9760    3.6160 hc        1 MOL      0.042949
    104 H45        -0.4540   -2.4890    3.9190 hc        1 MOL     -0.008408
    105 H46         0.3120   -1.0820    3.2300 hc        1 MOL     -0.008408
    106 H47         3.0890   -1.7250    2.5750 hc        1 MOL      0.009212
    107 H48         3.1610   -2.5470    4.2210 hc        1 MOL      0.009212
    108 H49         3.5360   -3.4450    2.8220 hc        1 MOL      0.009212
    109 H50         0.1110   -1.1210    5.6920 hc        1 MOL      0.049652
    110 H51         1.3060   -2.4090    5.7360 hc        1 MOL      0.049652
    111 H52         1.7110   -0.7640    5.0420 hc        1 MOL      0.049652
    112 N10         2.5620   -2.7540   -0.2520 n         1 MOL     -0.210361
    113 C35         3.7450   -2.8450   -1.1440 c3        1 MOL     -0.024616
    114 C36         5.0510   -2.2860   -0.4960 c         1 MOL      0.215554
    115 O17         5.0410   -1.5310    0.4120 o         1 MOL     -0.152517
    116 C37         3.4590   -2.0710   -2.5230 c3        1 MOL      0.305362
    117 C38         2.4900   -2.7780   -3.4920 c3        1 MOL     -0.615769
    118 O18         2.9660   -0.7240   -2.3050 oh        1 MOL     -0.525184
    119 H53         2.1110   -1.8570   -0.2460 hn        1 MOL      0.207055
    120 H54         3.9240   -3.8590   -1.4840 h1        1 MOL      0.086077
    121 H55         4.3560   -1.9600   -3.1270 h1        1 MOL      0.024648
    122 H56         2.1260   -0.7750   -1.8490 ho        1 MOL      0.317909
    123 H57         2.2980   -2.2570   -4.4380 hc        1 MOL      0.169873
    124 H58         2.8700   -3.7970   -3.5400 hc        1 MOL      0.169873
    125 H59         1.4920   -2.9220   -3.0800 hc        1 MOL      0.169873
    126 N11         6.2000   -2.6070   -1.0560 n         1 MOL     -0.209490
    127 C39         7.5600   -2.1510   -0.6910 c3        1 MOL     -0.118839
    128 C40         7.7240   -0.6990   -0.2570 c         1 MOL      0.408170
    129 O19         8.0150   -0.2970    0.8230 o         1 MOL     -0.473695
    130 C41         8.7230   -2.5280   -1.7250 c3        1 MOL      0.375077
    131 C42         8.7150   -4.0030   -2.0620 c3        1 MOL     -0.283776
    132 O20         8.6780   -1.7660   -2.8380 oh        1 MOL     -0.617596
    133 H60         6.2130   -3.2870   -1.8000 hn        1 MOL      0.209342
    134 H61         7.7570   -2.7150    0.2220 h1        1 MOL      0.103755
    135 H62         9.6900   -2.4630   -1.2170 h1        1 MOL      0.004756
    136 H63         9.5530   -1.8410   -3.2260 ho        1 MOL      0.407419
    137 H64         9.2260   -4.2930   -2.9740 hc        1 MOL      0.074812
    138 H65         9.0360   -4.5040   -1.1600 hc        1 MOL      0.074812
    139 H66         7.7170   -4.4460   -2.2020 hc        1 MOL      0.074812
    140 N12         7.2830    0.2020   -1.1880 n         1 MOL     -0.279468
    141 C43         7.1590    1.6620   -0.9400 c3        1 MOL     -0.127838
    142 C44         6.0780    2.1680    0.1040 c         1 MOL      0.455756
    143 O21         6.0410    3.3580    0.3860 o         1 MOL     -0.555739
    144 C45         7.0430    2.3480   -2.3650 c3        1 MOL     -0.169978
    145 C46         5.7910    2.0080   -3.1830 c3        1 MOL      0.053770
    146 C47         4.6370    2.9800   -3.0110 c3        1 MOL     -0.097093
    147 C48         3.2580    2.5910   -3.5540 c3        1 MOL      0.018620
    148 N13         3.2180    2.8530   -4.9700 n4        1 MOL     -0.347918
    149 H67         7.1170   -0.1560   -2.1180 hn        1 MOL      0.226075
    150 H68         8.0320    2.0240   -0.3970 h1        1 MOL      0.154747
    151 H69         7.8890    2.0020   -2.9520 hc        1 MOL      0.078413
    152 H70         7.2280    3.4170   -2.2890 hc        1 MOL      0.078413
    153 H71         5.4740    1.0400   -2.8000 hc        1 MOL      0.005328
    154 H72         6.0640    1.8810   -4.2300 hc        1 MOL      0.005328
    155 H73         5.0020    3.8850   -3.4890 hc        1 MOL      0.042545
    156 H74         4.6100    3.1170   -1.9330 hc        1 MOL      0.042545
    157 H75         2.4350    3.1400   -3.1060 hx        1 MOL      0.097800
    158 H76         3.2070    1.5350   -3.3010 hx        1 MOL      0.097800
    159 H77         3.6150    3.7520   -5.1940 hn        1 MOL      0.323148
    160 H78         3.7700    2.2000   -5.5100 hn        1 MOL      0.323148
    161 H79         2.2560    2.9400   -5.2740 hn        1 MOL      0.323148
    162 N14         5.2260    1.3420    0.5960 n         1 MOL     -0.051569
    163 C49         4.2420    1.5460    1.7390 c3        1 MOL     -0.157513
    164 C50         4.9250    1.0400    3.0260 c         1 MOL      0.483207
    165 O22         4.7520    1.6580    4.0680 o         1 MOL     -0.549144
    166 C51         2.8420    0.8230    1.4790 c3        1 MOL      0.244556
    167 C52         1.9970    1.4840    0.3250 c3        1 MOL      0.031589
    168 C53         0.8600    0.6120   -0.1120 c         1 MOL      0.561063
    169 O23         1.0000   -0.5840   -0.4830 o         1 MOL     -0.640910
    170 O24        -0.2740    1.1210   -0.2140 o         1 MOL     -0.640910
    171 H80         5.2200    0.3530    0.3810 hn        1 MOL      0.000159
    172 H81         4.0450    2.5990    1.8940 h1        1 MOL      0.106006
    173 H82         2.2510    0.8410    2.3960 hc        1 MOL      0.000871
    174 H83         3.0030   -0.1830    1.1110 hc        1 MOL      0.000871
    175 H84         2.6260    1.5250   -0.5620 hc        1 MOL     -0.053623
    176 H85         1.6110    2.4500    0.6400 hc        1 MOL     -0.053623
    177 N15         5.6330   -0.0820    3.0540 n         1 MOL     -0.134193
    178 C54         6.3930   -0.6120    4.1480 c3        1 MOL     -0.314870
    179 H86         6.6050    0.1840    4.8620 h1        1 MOL      0.121222
    180 H87         5.8210   -1.3970    4.6420 h1        1 MOL      0.121222
    181 H88         7.3310   -1.0240    3.7750 h1        1 MOL      0.121222
    182 H89         5.5890   -0.6690    2.2270 hn        1 MOL      0.142442
    183 Ca1        -1.5980   -0.8420   -1.2520 Ca        1 MOL      1.765827
    184 O25        -0.2160    0.0770   -3.3330 oh        1 MOL     -0.935675
    185 H90        -0.7980    0.6810   -3.7880 ho        1 MOL      0.417574
    186 H91         0.5730    0.0470   -3.8750 ho        1 MOL      0.417574
    187 O26        -0.7100   -3.1910   -2.2530 oh        1 MOL     -0.935675
    188 H92        -1.5030   -3.7070   -2.1490 ho        1 MOL      0.417574
    189 H93        -0.4080   -3.3790   -3.1420 ho        1 MOL      0.417574
@<TRIPOS>BOND
     1    1    2 1   
     2    1    4 1   
     3    1    5 1   
     4    1    6 1   
     5    2    3 2   
     6    2    7 1   
     7    7    8 1   
     8    7   15 1   
     9    8    9 1   
    10    8   11 1   
    11    8   16 1   
    12    9   10 2   
    13    9   19 1   
    14   11   12 1   
    15   11   17 1   
    16   11   18 1   
    17   12   13 1   
    18   12   14 1   
    19   19   20 1   
    20   19   28 1   
    21   20   21 1   
    22   20   23 1   
    23   20   29 1   
    24   21   22 2   
    25   21   41 1   
    26   23   24 1   
    27   23   30 1   
    28   23   31 1   
    29   24   25 1   
    30   24   32 1   
    31   24   33 1   
    32   25   26 1   
    33   25   34 1   
    34   25   35 1   
    35   26   27 1   
    36   26   36 1   
    37   26   37 1   
    38   27   38 1   
    39   27   39 1   
    40   27   40 1   
    41   41   42 1   
    42   41   49 1   
    43   42   43 1   
    44   42   45 1   
    45   42   50 1   
    46   43   44 2   
    47   43   53 1   
    48   45   46 1   
    49   45   51 1   
    50   45   52 1   
    51   46   47 1   
    52   46   48 1   
    53   53   54 1   
    54   53   57 1   
    55   54   55 1   
    56   54   58 1   
    57   54   59 1   
    58   55   56 2   
    59   55   60 1   
    60   60   61 1   
    61   60   68 1   
    62   61   62 1   
    63   61   64 1   
    64   61   69 1   
    65   62   63 2   
    66   62   72 1   
    67   64   65 1   
    68   64   70 1   
    69   64   71 1   
    70   65   66 1   
    71   65   67 1   
    72   72   73 1   
    73   72   76 1   
    74   73   74 1   
    75   73   77 1   
    76   73   78 1   
    77   74   75 2   
    78   74   79 1   
    79   79   80 1   
    80   79   86 1   
    81   80   81 1   
    82   80   83 1   
    83   80   87 1   
    84   81   82 2   
    85   81   93 1   
    86   83   84 1   
    87   83   85 1   
    88   83   88 1   
    89   84   90 1   
    90   84   91 1   
    91   84   92 1   
    92   85   89 1   
    93   93   94 1   
    94   93  101 1   
    95   94   95 1   
    96   94   97 1   
    97   94  102 1   
    98   95   96 2   
    99   95  112 1   
   100   97   98 1   
   101   97   99 1   
   102   97  103 1   
   103   98  100 1   
   104   98  104 1   
   105   98  105 1   
   106   99  106 1   
   107   99  107 1   
   108   99  108 1   
   109  100  109 1   
   110  100  110 1   
   111  100  111 1   
   112  112  113 1   
   113  112  119 1   
   114  113  114 1   
   115  113  116 1   
   116  113  120 1   
   117  114  115 2   
   118  114  126 1   
   119  116  117 1   
   120  116  118 1   
   121  116  121 1   
   122  117  123 1   
   123  117  124 1   
   124  117  125 1   
   125  118  122 1   
   126  126  127 1   
   127  126  133 1   
   128  127  128 1   
   129  127  130 1   
   130  127  134 1   
   131  128  129 2   
   132  128  140 1   
   133  130  131 1   
   134  130  132 1   
   135  130  135 1   
   136  131  137 1   
   137  131  138 1   
   138  131  139 1   
   139  132  136 1   
   140  140  141 1   
   141  140  149 1   
   142  141  142 1   
   143  141  144 1   
   144  141  150 1   
   145  142  143 2   
   146  142  162 1   
   147  144  145 1   
   148  144  151 1   
   149  144  152 1   
   150  145  146 1   
   151  145  153 1   
   152  145  154 1   
   153  146  147 1   
   154  146  155 1   
   155  146  156 1   
   156  147  148 1   
   157  147  157 1   
   158  147  158 1   
   159  148  159 1   
   160  148  160 1   
   161  148  161 1   
   162  162  163 1   
   163  162  171 1   
   164  163  164 1   
   165  163  166 1   
   166  163  172 1   
   167  164  165 2   
   168  164  177 1   
   169  166  167 1   
   170  166  173 1   
   171  166  174 1   
   172  167  168 1   
   173  167  175 1   
   174  167  176 1   
   175  168  169 1   
   176  168  170 1   
   177  177  178 1   
   178  177  182 1   
   179  178  179 1   
   180  178  180 1   
   181  178  181 1   
   182  184  185 1   
   183  184  186 1   
   184  187  188 1   
   185  187  189 1   
@<TRIPOS>SUBSTRUCTURE
     1 MOL         1 TEMP              0 ****  ****    0 ROOT
