@<TRIPOS>MOLECULE
MOL
  179   176     1     0     0
SMALL
resp


@<TRIPOS>ATOM
      1 C1         -0.4920   -3.7680    6.1150 c3        1 MOL     -0.417818
      2 C2         -0.2700   -3.2010    4.6670 c         1 MOL      0.741423
      3 O1         -1.2210   -3.0840    3.9100 o         1 MOL     -0.598319
      4 H1         -1.3110   -3.2310    6.5930 hc        1 MOL      0.100165
      5 H2         -0.7410   -4.8280    6.0560 hc        1 MOL      0.100165
      6 H3          0.4180   -3.6390    6.6990 hc        1 MOL      0.100165
      7 N1          0.9720   -2.9470    4.3340 n         1 MOL     -0.584553
      8 C3          1.3650   -2.6140    2.9630 c3        1 MOL      0.326698
      9 C4          1.5060   -3.8080    1.9820 c         1 MOL      0.407143
     10 O2          2.0900   -4.8540    2.2480 o         1 MOL     -0.542547
     11 C5          2.7430   -1.9020    3.1170 c3        1 MOL     -0.074032
     12 C6          3.3030   -1.2300    1.7990 c         1 MOL      0.687146
     13 O3          2.5990   -1.3390    0.7450 o         1 MOL     -0.677784
     14 O4          4.4070   -0.6120    1.8720 o         1 MOL     -0.677784
     15 H4          1.7150   -3.0820    4.9940 hn        1 MOL      0.310905
     16 H5          0.6790   -1.9050    2.4940 h1        1 MOL     -0.022189
     17 H6          3.3970   -2.6430    3.5700 hc        1 MOL     -0.000889
     18 H7          2.6560   -1.0840    3.8400 hc        1 MOL     -0.000889
     19 N2          0.7030   -3.7870    0.8900 n         1 MOL     -0.360396
     20 C7          0.5960   -5.0010    0.0450 c3        1 MOL     -0.029863
     21 C8          1.8060   -5.4080   -0.7500 c         1 MOL      0.487585
     22 O5          2.0800   -6.5830   -0.9090 o         1 MOL     -0.582129
     23 C9         -0.6400   -4.8410   -0.8500 c3        1 MOL     -0.147106
     24 C10        -1.1380   -6.0900   -1.5830 c3        1 MOL     -0.007999
     25 C11        -1.6480   -7.1830   -0.6600 c3        1 MOL      0.141444
     26 C12        -2.9300   -6.9700    0.1030 c3        1 MOL     -0.028794
     27 N3         -2.9270   -7.6810    1.3430 n4        1 MOL     -0.291386
     28 H8          0.1330   -2.9950    0.6370 hn        1 MOL      0.211435
     29 H9          0.5040   -5.8910    0.6700 h1        1 MOL      0.128447
     30 H10        -0.3590   -4.0750   -1.5740 hc        1 MOL      0.044202
     31 H11        -1.5240   -4.4400   -0.3650 hc        1 MOL      0.044202
     32 H12        -0.2160   -6.4510   -2.0420 hc        1 MOL      0.029219
     33 H13        -1.9110   -5.8700   -2.3160 hc        1 MOL      0.029219
     34 H14        -0.8840   -7.3450    0.0990 hc        1 MOL     -0.032287
     35 H15        -1.6780   -8.0430   -1.3220 hc        1 MOL     -0.032287
     36 H16        -3.6920   -7.3090   -0.6030 hx        1 MOL      0.089353
     37 H17        -3.0710   -5.9020    0.2920 hx        1 MOL      0.089353
     38 H18        -2.2050   -7.3170    1.9410 hn        1 MOL      0.318403
     39 H19        -3.7850   -7.6360    1.8890 hn        1 MOL      0.318403
     40 H20        -2.7570   -8.6640    1.2060 hn        1 MOL      0.318403
     41 N4          2.6080   -4.5080   -1.2430 n         1 MOL     -0.041627
     42 C13         3.8320   -4.7010   -2.0510 c3        1 MOL     -0.160448
     43 C14         5.1120   -4.1390   -1.3800 c         1 MOL      0.499495
     44 O6          6.2090   -4.2820   -1.9050 o         1 MOL     -0.518446
     45 C15         3.6860   -3.9830   -3.4120 c3        1 MOL     -0.124387
     46 C16         3.4320   -2.4660   -3.2670 c         1 MOL      0.645383
     47 O7          3.0950   -1.9290   -2.1570 o         1 MOL     -0.677162
     48 O8          3.4440   -1.8180   -4.2990 o         1 MOL     -0.677162
     49 H21         2.3420   -3.5300   -1.1620 hn        1 MOL      0.016093
     50 H22         3.9600   -5.7410   -2.3350 h1        1 MOL      0.137443
     51 H23         2.8990   -4.5320   -3.9270 hc        1 MOL      0.073416
     52 H24         4.5580   -4.0910   -4.0600 hc        1 MOL      0.073416
     53 N5          5.0580   -3.3200   -0.2750 n         1 MOL     -0.366219
     54 C17         6.2630   -2.5940    0.1950 c3        1 MOL     -0.012584
     55 C18         6.8450   -1.3710   -0.4800 c         1 MOL      0.472838
     56 O9          8.0610   -1.1990   -0.3170 o         1 MOL     -0.557200
     57 H25         4.1570   -3.0440    0.0770 hn        1 MOL      0.213059
     58 H26         7.0820   -3.3130    0.2490 h1        1 MOL      0.062437
     59 H27         6.0560   -2.2930    1.2180 h1        1 MOL      0.062437
     60 N6          5.9600   -0.5800   -1.0450 n         1 MOL     -0.229875
     61 C19         6.2760    0.7590   -1.5570 c3        1 MOL     -0.009972
     62 C20         6.3220    1.8530   -0.5190 c         1 MOL      0.299310
     63 O10         6.6570    2.9590   -0.9210 o         1 MOL     -0.433192
     64 C21         5.3930    1.0100   -2.7270 c3        1 MOL     -0.300227
     65 C22         3.9380    1.3950   -2.4460 c         1 MOL      0.805483
     66 N7          3.1350    1.9550   -3.2720 n         1 MOL     -0.820525
     67 O11         3.3920    1.2150   -1.3460 o         1 MOL     -0.558508
     68 H28         4.9970   -0.8920   -1.0040 hn        1 MOL      0.265245
     69 H29         7.3220    0.7110   -1.8720 h1        1 MOL      0.130284
     70 H30         5.3140    0.1200   -3.3510 hc        1 MOL      0.105490
     71 H31         5.8590    1.8660   -3.2150 hc        1 MOL      0.105490
     72 H32         3.3660    2.2170   -4.2160 hn        1 MOL      0.354690
     73 H33         2.1760    2.1280   -3.0030 hn        1 MOL      0.354690
     74 N8          5.9930    1.5770    0.7570 n         1 MOL     -0.217318
     75 C23         5.9080    2.6440    1.7930 c3        1 MOL     -0.234207
     76 C24         4.5200    3.3020    1.9190 c         1 MOL      0.663418
     77 O12         4.4270    4.1320    2.8300 o         1 MOL     -0.593236
     78 H34         5.7090    0.6430    1.0140 hn        1 MOL      0.274817
     79 H35         6.6780    3.3880    1.5570 h1        1 MOL      0.133444
     80 H36         6.1970    2.2320    2.7510 h1        1 MOL      0.133444
     81 N9          3.4660    2.9200    1.1770 n         1 MOL     -0.396551
     82 C25         2.1280    3.5950    1.1780 c3        1 MOL      0.225101
     83 C26         0.9760    2.6400    1.0410 c         1 MOL      0.340396
     84 O13         1.1950    1.4370    0.6410 o         1 MOL     -0.638933
     85 C27         2.0560    4.5170   -0.1100 c3        1 MOL     -0.170078
     86 C28         3.1150    5.6550    0.0310 ca        1 MOL      0.072036
     87 C29         4.4120    5.4380   -0.4940 ca        1 MOL     -0.191717
     88 C30         2.7110    6.8570    0.5510 ca        1 MOL     -0.191717
     89 C31         5.3580    6.4560   -0.2970 ca        1 MOL     -0.197667
     90 C32         3.6470    7.8850    0.6960 ca        1 MOL     -0.197667
     91 C33         4.9590    7.6600    0.3450 ca        1 MOL      0.301843
     92 O14         5.9540    8.6140    0.4810 oh        1 MOL     -0.469982
     93 H37         3.6220    2.1430    0.5520 hn        1 MOL      0.199990
     94 H38         2.0290    4.2170    2.0660 h1        1 MOL      0.057810
     95 H39         1.0520    4.8330   -0.3910 hc        1 MOL      0.047913
     96 H40         2.4570    3.8790   -0.8990 hc        1 MOL      0.047913
     97 H41         4.6530    4.5460   -1.0580 ha        1 MOL      0.126555
     98 H42         1.7160    6.9790    0.9470 ha        1 MOL      0.126555
     99 H43         6.3670    6.3300   -0.6770 ha        1 MOL      0.128101
    100 H44         3.3240    8.8370    1.0960 ha        1 MOL      0.128101
    101 H45         5.6450    9.3810    0.9650 ho        1 MOL      0.342355
    102 N10        -0.1860    3.0730    1.4230 n         1 MOL     -0.353962
    103 C34        -1.4360    2.3690    1.3260 c3        1 MOL     -0.061709
    104 C35        -2.4890    3.3180    0.6970 c         1 MOL      0.560549
    105 O15        -2.7890    4.3980    1.2650 o         1 MOL     -0.534255
    106 C36        -1.8220    1.7420    2.7560 c3        1 MOL     -0.087650
    107 C37        -0.5910    1.2660    3.6080 c3        1 MOL      0.279880
    108 C38        -2.7790    0.5880    2.4610 c3        1 MOL     -0.204190
    109 C39        -0.9550    0.7150    4.9750 c3        1 MOL     -0.331840
    110 H46        -0.3020    3.9440    1.9240 hn        1 MOL      0.279908
    111 H47        -1.1930    1.5350    0.6760 h1        1 MOL      0.150263
    112 H48        -2.4620    2.4010    3.3430 hc        1 MOL      0.056718
    113 H49         0.0180    2.1290    3.8590 hc        1 MOL     -0.017464
    114 H50         0.0780    0.6180    3.0270 hc        1 MOL     -0.017464
    115 H51        -3.5080    1.0370    1.7850 hc        1 MOL      0.061086
    116 H52        -2.2880   -0.1840    1.8630 hc        1 MOL      0.061086
    117 H53        -3.3490    0.1960    3.3060 hc        1 MOL      0.061086
    118 H54        -1.7780   -0.0020    4.9530 hc        1 MOL      0.074217
    119 H55        -0.0660    0.1270    5.1710 hc        1 MOL      0.074217
    120 H56        -1.0970    1.5600    5.6450 hc        1 MOL      0.074217
    121 N11        -3.2140    2.8810   -0.3460 n         1 MOL     -0.393895
    122 C40        -4.3430    3.5620   -0.9370 c3        1 MOL      0.000676
    123 C41        -5.6720    3.0680   -0.2610 c         1 MOL      0.554863
    124 O16        -5.7870    2.1340    0.4870 o         1 MOL     -0.360509
    125 C42        -4.4960    3.4220   -2.4480 c3        1 MOL     -0.212848
    126 O17        -4.8520    2.0470   -2.8280 oh        1 MOL     -0.427477
    127 H57        -2.9610    2.0000   -0.7600 hn        1 MOL      0.309884
    128 H58        -4.1440    4.5970   -0.6520 h1        1 MOL      0.099101
    129 H59        -3.5320    3.5250   -2.9510 h1        1 MOL      0.134268
    130 H60        -5.1380    4.1720   -2.9040 h1        1 MOL      0.134268
    131 H61        -4.4780    1.8640   -3.6980 ho        1 MOL      0.389827
    132 N12        -6.7970    3.8020   -0.5180 n         1 MOL     -0.485834
    133 C43        -8.0830    3.4250   -0.0450 c3        1 MOL      0.073543
    134 C44        -8.5040    2.0760   -0.5710 c         1 MOL      0.437721
    135 O18        -8.9760    1.1680    0.1860 o         1 MOL     -0.501722
    136 C45        -9.0680    4.5350   -0.2950 c3        1 MOL     -0.123603
    137 H62        -6.7270    4.7090   -0.9710 hn        1 MOL      0.278263
    138 H63        -8.0290    3.2550    1.0260 h1        1 MOL      0.087406
    139 H64        -9.8090    4.6920    0.4830 hc        1 MOL      0.053210
    140 H65        -8.6080    5.5240   -0.4010 hc        1 MOL      0.053210
    141 H66        -9.6020    4.4280   -1.2390 hc        1 MOL      0.053210
    142 N13        -8.2850    1.8030   -1.8260 n         1 MOL     -0.420342
    143 C46        -8.4100    0.4260   -2.3270 c3        1 MOL      0.255688
    144 C47        -7.5570   -0.5790   -1.6230 c         1 MOL      0.305407
    145 O19        -8.0580   -1.5980   -1.1800 o         1 MOL     -0.512457
    146 C48        -8.0530    0.3470   -3.8340 c3        1 MOL     -0.278489
    147 H67        -7.8190    2.5440   -2.3280 hn        1 MOL      0.288819
    148 H68        -9.4480    0.0910   -2.3080 h1        1 MOL      0.070302
    149 H69        -8.0450   -0.6920   -4.1470 hc        1 MOL      0.073675
    150 H70        -8.8030    0.9390   -4.3720 hc        1 MOL      0.073675
    151 H71        -7.0990    0.8450   -3.9700 hc        1 MOL      0.073675
    152 N14        -6.3000   -0.3180   -1.2500 n         1 MOL      0.085047
    153 C49        -5.4110   -1.2670   -0.6090 c3        1 MOL     -0.107733
    154 C50        -5.7940   -1.3950    0.9140 c         1 MOL      0.454592
    155 O20        -5.7910   -2.4670    1.4640 o         1 MOL     -0.563105
    156 C51        -3.9620   -0.8940   -0.9350 c3        1 MOL      0.207180
    157 C52        -2.9500   -1.9370   -0.5780 c3        1 MOL     -0.436705
    158 C53        -1.5760   -1.3140   -0.7960 c         1 MOL      0.724225
    159 O21        -1.2240   -0.9100   -1.9040 o         1 MOL     -0.705880
    160 O22        -0.6530   -1.4130    0.0570 o         1 MOL     -0.705880
    161 H72        -5.9980    0.6280   -1.4590 hn        1 MOL     -0.187234
    162 H73        -5.5080   -2.2410   -1.0880 h1        1 MOL      0.076896
    163 H74        -3.6910    0.0840   -0.5330 hc        1 MOL     -0.028601
    164 H75        -3.9820   -0.7640   -2.0190 hc        1 MOL     -0.028601
    165 H76        -3.1650   -2.7510   -1.2640 hc        1 MOL      0.138025
    166 H77        -2.9750   -2.2950    0.4500 hc        1 MOL      0.138025
    167 N15        -6.4040   -0.3370    1.4750 n         1 MOL     -0.008755
    168 C54        -6.7030   -0.2720    2.9170 c3        1 MOL     -0.288687
    169 H78        -7.5260    0.4230    3.0860 h1        1 MOL      0.107806
    170 H79        -6.9840   -1.2620    3.2760 h1        1 MOL      0.107806
    171 H80        -5.8210    0.0730    3.4570 h1        1 MOL      0.107806
    172 H81        -6.6460    0.4160    0.8510 hn        1 MOL      0.091186
    173 Ca1         1.3320   -0.3570   -1.1860 Ca        1 MOL      1.742631
    174 O23         1.3120   -0.5500   -3.7470 oh        1 MOL     -0.884846
    175 H82         0.7240   -1.1670   -4.1680 ho        1 MOL      0.421781
    176 H83         2.1800   -0.8120   -4.0370 ho        1 MOL      0.421781
    177 O24         0.0560    1.8390   -2.3310 oh        1 MOL     -0.884846
    178 H84        -0.0150    1.7310   -3.2770 ho        1 MOL      0.421781
    179 H85        -0.0080    2.7820   -2.1940 ho        1 MOL      0.421781
@<TRIPOS>BOND
     1    1    2 1   
     2    1    4 1   
     3    1    5 1   
     4    1    6 1   
     5    2    3 2   
     6    2    7 1   
     7    7    8 1   
     8    7   15 1   
     9    8    9 1   
    10    8   11 1   
    11    8   16 1   
    12    9   10 2   
    13    9   19 1   
    14   11   12 1   
    15   11   17 1   
    16   11   18 1   
    17   12   13 1   
    18   12   14 1   
    19   19   20 1   
    20   19   28 1   
    21   20   21 1   
    22   20   23 1   
    23   20   29 1   
    24   21   22 2   
    25   21   41 1   
    26   23   24 1   
    27   23   30 1   
    28   23   31 1   
    29   24   25 1   
    30   24   32 1   
    31   24   33 1   
    32   25   26 1   
    33   25   34 1   
    34   25   35 1   
    35   26   27 1   
    36   26   36 1   
    37   26   37 1   
    38   27   38 1   
    39   27   39 1   
    40   27   40 1   
    41   41   42 1   
    42   41   49 1   
    43   42   43 1   
    44   42   45 1   
    45   42   50 1   
    46   43   44 2   
    47   43   53 1   
    48   45   46 1   
    49   45   51 1   
    50   45   52 1   
    51   46   47 1   
    52   46   48 1   
    53   53   54 1   
    54   53   57 1   
    55   54   55 1   
    56   54   58 1   
    57   54   59 1   
    58   55   56 2   
    59   55   60 1   
    60   60   61 1   
    61   60   68 1   
    62   61   62 1   
    63   61   64 1   
    64   61   69 1   
    65   62   63 2   
    66   62   74 1   
    67   64   65 1   
    68   64   70 1   
    69   64   71 1   
    70   65   66 1   
    71   65   67 2   
    72   66   72 1   
    73   66   73 1   
    74   74   75 1   
    75   74   78 1   
    76   75   76 1   
    77   75   79 1   
    78   75   80 1   
    79   76   77 2   
    80   76   81 1   
    81   81   82 1   
    82   81   93 1   
    83   82   83 1   
    84   82   85 1   
    85   82   94 1   
    86   83   84 2   
    87   83  102 1   
    88   85   86 1   
    89   85   95 1   
    90   85   96 1   
    91   86   87 ar  
    92   86   88 ar  
    93   87   89 ar  
    94   87   97 1   
    95   88   90 ar  
    96   88   98 1   
    97   89   91 ar  
    98   89   99 1   
    99   90   91 ar  
   100   90  100 1   
   101   91   92 1   
   102   92  101 1   
   103  102  103 1   
   104  102  110 1   
   105  103  104 1   
   106  103  106 1   
   107  103  111 1   
   108  104  105 2   
   109  104  121 1   
   110  106  107 1   
   111  106  108 1   
   112  106  112 1   
   113  107  109 1   
   114  107  113 1   
   115  107  114 1   
   116  108  115 1   
   117  108  116 1   
   118  108  117 1   
   119  109  118 1   
   120  109  119 1   
   121  109  120 1   
   122  121  122 1   
   123  121  127 1   
   124  122  123 1   
   125  122  125 1   
   126  122  128 1   
   127  123  124 2   
   128  123  132 1   
   129  125  126 1   
   130  125  129 1   
   131  125  130 1   
   132  126  131 1   
   133  132  133 1   
   134  132  137 1   
   135  133  134 1   
   136  133  136 1   
   137  133  138 1   
   138  134  135 2   
   139  134  142 1   
   140  136  139 1   
   141  136  140 1   
   142  136  141 1   
   143  142  143 1   
   144  142  147 1   
   145  143  144 1   
   146  143  146 1   
   147  143  148 1   
   148  144  145 2   
   149  144  152 1   
   150  146  149 1   
   151  146  150 1   
   152  146  151 1   
   153  152  153 1   
   154  152  161 1   
   155  153  154 1   
   156  153  156 1   
   157  153  162 1   
   158  154  155 2   
   159  154  167 1   
   160  156  157 1   
   161  156  163 1   
   162  156  164 1   
   163  157  158 1   
   164  157  165 1   
   165  157  166 1   
   166  158  159 1   
   167  158  160 1   
   168  167  168 1   
   169  167  172 1   
   170  168  169 1   
   171  168  170 1   
   172  168  171 1   
   173  174  175 1   
   174  174  176 1   
   175  177  178 1   
   176  177  179 1   
@<TRIPOS>SUBSTRUCTURE
     1 MOL         1 TEMP              0 ****  ****    0 ROOT
