@<TRIPOS>MOLECULE
MOL
  179   176     1     0     0
SMALL
resp


@<TRIPOS>ATOM
      1 C1         -2.5340   -2.1630    4.7510 c3        1 MOL     -0.286885
      2 C2         -1.6170   -2.2020    3.5160 c         1 MOL      0.664477
      3 O1         -2.1200   -2.5840    2.4430 o         1 MOL     -0.561362
      4 H1         -2.4190   -3.0860    5.3180 hc        1 MOL      0.082042
      5 H2         -2.2630   -1.3140    5.3790 hc        1 MOL      0.082042
      6 H3         -3.5710   -2.0610    4.4310 hc        1 MOL      0.082042
      7 N1         -0.3400   -2.0110    3.6720 n         1 MOL     -0.540931
      8 C3          0.7270   -2.0400    2.6130 c3        1 MOL      0.275016
      9 C4          1.1160   -3.4900    2.2340 c         1 MOL      0.301067
     10 O2          2.2650   -3.8560    2.3620 o         1 MOL     -0.445274
     11 C5          1.9520   -1.2040    2.9970 c3        1 MOL     -0.054286
     12 C6          3.0160   -1.0720    1.9140 c         1 MOL      0.452123
     13 O3          2.7000   -1.2370    0.7140 o         1 MOL     -0.577917
     14 O4          4.1610   -0.7430    2.2840 o         1 MOL     -0.577917
     15 H4          0.0170   -1.9140    4.6150 hn        1 MOL      0.286523
     16 H5          0.3690   -1.5720    1.7030 h1        1 MOL     -0.008169
     17 H6          2.3990   -1.4530    3.9670 hc        1 MOL      0.027993
     18 H7          1.5160   -0.2170    3.1490 hc        1 MOL      0.027993
     19 N2          0.2090   -4.2300    1.6970 n         1 MOL     -0.162007
     20 C7          0.2890   -5.6770    1.3340 c3        1 MOL     -0.088409
     21 C8          1.2460   -6.0920    0.1530 c         1 MOL      0.441577
     22 O5          1.3650   -7.3280   -0.1140 o         1 MOL     -0.532231
     23 C9         -1.1150   -6.2800    1.1680 c3        1 MOL     -0.245605
     24 C10        -1.8840   -5.7190   -0.0700 c3        1 MOL      0.447497
     25 C11        -3.0440   -6.6440   -0.3920 c3        1 MOL      0.007987
     26 C12        -4.2090   -6.0450   -1.1750 c3        1 MOL     -0.006475
     27 N3         -3.8490   -5.5210   -2.5810 n4        1 MOL     -0.358022
     28 H8         -0.7350   -3.8670    1.6760 hn        1 MOL      0.183410
     29 H9          0.6840   -6.0770    2.2690 h1        1 MOL      0.118449
     30 H10        -1.7460   -5.9740    2.0030 hc        1 MOL      0.087363
     31 H11        -1.0740   -7.3530    1.0660 hc        1 MOL      0.087363
     32 H12        -1.2280   -5.6920   -0.9420 hc        1 MOL     -0.113605
     33 H13        -2.1680   -4.6780    0.1060 hc        1 MOL     -0.113605
     34 H14        -3.4140   -6.9920    0.5720 hc        1 MOL      0.000436
     35 H15        -2.6740   -7.5180   -0.9220 hc        1 MOL      0.000436
     36 H16        -4.5900   -5.2010   -0.5970 hx        1 MOL      0.098798
     37 H17        -4.9350   -6.8610   -1.2560 hx        1 MOL      0.098798
     38 H18        -3.1250   -4.8200   -2.5300 hn        1 MOL      0.323165
     39 H19        -3.3510   -6.2340   -3.0990 hn        1 MOL      0.323165
     40 H20        -4.6570   -5.1430   -3.0700 hn        1 MOL      0.323165
     41 N4          1.9370   -5.0940   -0.4930 n         1 MOL     -0.169144
     42 C13         3.0500   -5.3360   -1.4410 c3        1 MOL      0.033107
     43 C14         4.4010   -4.6660   -0.9320 c         1 MOL      0.372091
     44 O6          5.4540   -4.8880   -1.5730 o         1 MOL     -0.529124
     45 C15         2.7460   -4.8330   -2.8200 c3        1 MOL     -0.259096
     46 C16         2.4560   -3.3430   -2.9230 c         1 MOL      0.847269
     47 O7          2.4680   -2.5870   -1.9180 o         1 MOL     -0.750290
     48 O8          2.1660   -2.8940   -4.0610 o         1 MOL     -0.750290
     49 H21         1.7520   -4.1110   -0.3610 hn        1 MOL      0.151341
     50 H22         3.2680   -6.4100   -1.4180 h1        1 MOL      0.098553
     51 H23         1.8520   -5.3910   -3.0850 hc        1 MOL      0.070188
     52 H24         3.5650   -5.0500   -3.5080 hc        1 MOL      0.070188
     53 N5          4.3670   -4.0170    0.2100 n         1 MOL     -0.020884
     54 C17         5.6070   -3.6350    0.9140 c3        1 MOL     -0.160290
     55 C18         6.4510   -2.5110    0.2120 c         1 MOL      0.485857
     56 O9          7.6700   -2.4900    0.3890 o         1 MOL     -0.540639
     57 H25         3.4800   -3.8040    0.6360 hn        1 MOL     -0.034136
     58 H26         6.2730   -4.4760    1.1100 h1        1 MOL      0.111279
     59 H27         5.2950   -3.2090    1.8750 h1        1 MOL      0.111279
     60 N6          5.7970   -1.5890   -0.5290 n         1 MOL     -0.212550
     61 C19         6.5170   -0.5240   -1.2200 c3        1 MOL     -0.013112
     62 C20         6.7150    0.7460   -0.2850 c         1 MOL      0.318803
     63 O10         7.5750    1.5830   -0.5990 o         1 MOL     -0.525779
     64 C21         5.8480   -0.2400   -2.5570 c3        1 MOL     -0.210665
     65 C22         4.6510    0.6600   -2.5630 c         1 MOL      0.640922
     66 N7          4.4990    1.4590   -3.5420 n         1 MOL     -0.670664
     67 O11         3.8670    0.6630   -1.6250 o         1 MOL     -0.637704
     68 H28         4.7950   -1.6160   -0.5910 hn        1 MOL      0.188194
     69 H29         7.5230   -0.9170   -1.3930 h1        1 MOL      0.118642
     70 H30         5.5930   -1.1230   -3.1450 hc        1 MOL      0.088327
     71 H31         6.5920    0.3330   -3.0960 hc        1 MOL      0.088327
     72 H32         5.1850    1.3800   -4.2880 hn        1 MOL      0.339894
     73 H33         3.6110    1.9420   -3.5060 hn        1 MOL      0.339894
     74 N8          6.0100    0.8920    0.8050 n         1 MOL      0.061418
     75 C23         6.1830    1.9880    1.8580 c3        1 MOL     -0.286068
     76 C24         5.0450    3.0250    1.9370 c         1 MOL      0.620920
     77 O12         5.0840    4.0930    2.5930 o         1 MOL     -0.557994
     78 H34         5.3750    0.1500    1.0460 hn        1 MOL      0.083072
     79 H35         7.0930    2.5930    1.7900 h1        1 MOL      0.133913
     80 H36         6.3360    1.4660    2.8020 h1        1 MOL      0.133913
     81 N9          3.9640    2.7560    1.1780 n         1 MOL     -0.580115
     82 C25         2.7690    3.5640    0.9390 c3        1 MOL      0.500528
     83 C26         1.4660    2.6970    1.0610 c         1 MOL      0.345532
     84 O13         1.4030    1.5180    0.7260 o         1 MOL     -0.479782
     85 C27         2.8470    4.1870   -0.4670 c3        1 MOL     -0.080897
     86 C28         3.9410    5.2900   -0.5810 ca        1 MOL      0.021138
     87 C29         5.2080    4.9510   -1.0120 ca        1 MOL     -0.160624
     88 C30         3.5780    6.5860   -0.3210 ca        1 MOL     -0.160624
     89 C31         6.1910    5.9970   -1.0250 ca        1 MOL     -0.247769
     90 C32         4.5260    7.5990   -0.4580 ca        1 MOL     -0.247769
     91 C33         5.9040    7.2940   -0.7770 ca        1 MOL      0.331308
     92 O14         6.8380    8.2730   -0.7290 oh        1 MOL     -0.437241
     93 H37         4.0780    1.9720    0.5470 hn        1 MOL      0.328821
     94 H38         2.7050    4.3420    1.6920 h1        1 MOL     -0.019645
     95 H39         1.8970    4.6750   -0.6850 hc        1 MOL     -0.001507
     96 H40         2.9900    3.3480   -1.1540 hc        1 MOL     -0.001507
     97 H41         5.4880    3.9500   -1.3160 ha        1 MOL      0.125372
     98 H42         2.5790    6.8080    0.0430 ha        1 MOL      0.125372
     99 H43         7.2180    5.7600   -1.2500 ha        1 MOL      0.144299
    100 H44         4.2160    8.6220   -0.3140 ha        1 MOL      0.144299
    101 H45         6.3100    9.0530   -0.5840 ho        1 MOL      0.322901
    102 N10         0.3790    3.2520    1.6080 n         1 MOL     -0.560843
    103 C34        -0.9650    2.7860    1.5800 c3        1 MOL      0.246234
    104 C35        -1.8870    3.6470    0.7250 c         1 MOL      0.406175
    105 O15        -1.9440    4.8620    1.0080 o         1 MOL     -0.544522
    106 C36        -1.4980    2.7700    3.0110 c3        1 MOL      0.272203
    107 C37        -0.6500    1.9510    3.9890 c3        1 MOL      0.106690
    108 C38        -2.9660    2.2920    2.9580 c3        1 MOL     -0.299093
    109 C39        -1.0870    2.2100    5.5030 c3        1 MOL     -0.287825
    110 H46         0.4710    4.1330    2.0870 hn        1 MOL      0.269421
    111 H47        -1.1010    1.7850    1.1770 h1        1 MOL      0.067819
    112 H48        -1.4930    3.7940    3.3870 hc        1 MOL     -0.034221
    113 H49         0.4040    2.2190    3.8790 hc        1 MOL     -0.035039
    114 H50        -0.7340    0.9080    3.6900 hc        1 MOL     -0.035039
    115 H51        -3.0740    1.3760    2.3820 hc        1 MOL      0.049085
    116 H52        -3.3780    2.0860    3.9530 hc        1 MOL      0.049085
    117 H53        -3.6200    3.0300    2.4950 hc        1 MOL      0.049085
    118 H54        -0.5070    1.5350    6.1380 hc        1 MOL      0.070190
    119 H55        -0.7370    3.1940    5.8040 hc        1 MOL      0.070190
    120 H56        -2.1480    2.0740    5.7080 hc        1 MOL      0.070190
    121 N11        -2.7750    3.0400   -0.1440 n         1 MOL     -0.216309
    122 C40        -3.7630    3.6510   -0.9580 c3        1 MOL      0.034951
    123 C41        -5.2430    3.5270   -0.4760 c         1 MOL      0.604398
    124 O16        -5.5300    2.5920    0.2880 o         1 MOL     -0.545105
    125 C42        -3.5780    3.0790   -2.3500 c3        1 MOL     -0.302867
    126 O17        -3.9960    1.7450   -2.3480 oh        1 MOL     -0.240494
    127 H57        -2.5420    2.0680   -0.2390 hn        1 MOL      0.200837
    128 H58        -3.6610    4.7400   -0.9390 h1        1 MOL      0.050178
    129 H59        -2.5250    3.1970   -2.6030 h1        1 MOL      0.118817
    130 H60        -4.2440    3.5900   -3.0390 h1        1 MOL      0.118817
    131 H61        -3.6320    1.4060   -3.1650 ho        1 MOL      0.334457
    132 N12        -6.1570    4.2840   -1.0210 n         1 MOL     -0.481737
    133 C43        -7.5950    4.0370   -0.7390 c3        1 MOL      0.084457
    134 C44        -8.0580    2.6130   -1.1650 c         1 MOL      0.502515
    135 O18        -8.8360    1.9740   -0.4220 o         1 MOL     -0.523800
    136 C45        -8.3600    5.1050   -1.4600 c3        1 MOL     -0.252712
    137 H62        -5.8620    4.9300   -1.7400 hn        1 MOL      0.295890
    138 H63        -7.6950    4.1330    0.3480 h1        1 MOL      0.113334
    139 H64        -8.4100    4.8550   -2.5200 hc        1 MOL      0.082676
    140 H65        -9.3950    5.0680   -1.1460 hc        1 MOL      0.082676
    141 H66        -8.0040    6.1170   -1.2780 hc        1 MOL      0.082676
    142 N13        -7.5140    2.0410   -2.2430 n         1 MOL     -0.381259
    143 C46        -7.7560    0.6190   -2.5040 c3        1 MOL      0.159905
    144 C47        -7.1760   -0.4870   -1.5170 c         1 MOL      0.319742
    145 O19        -7.8440   -1.4590   -1.1830 o         1 MOL     -0.504791
    146 C48        -7.2840    0.3720   -3.9460 c3        1 MOL     -0.298200
    147 H67        -6.8480    2.4630   -2.8720 hn        1 MOL      0.272308
    148 H68        -8.8230    0.4150   -2.6470 h1        1 MOL      0.084281
    149 H69        -8.0490    0.7730   -4.6180 hc        1 MOL      0.069862
    150 H70        -6.3380    0.8800   -4.0990 hc        1 MOL      0.069862
    151 H71        -7.0910   -0.6910   -4.0840 hc        1 MOL      0.069862
    152 N14        -5.9980   -0.2540   -1.0230 n         1 MOL      0.027578
    153 C49        -5.4860   -1.0480    0.1340 c3        1 MOL     -0.286791
    154 C50        -6.2440   -0.9470    1.4940 c         1 MOL      0.415198
    155 O20        -6.4300   -1.9710    2.2780 o         1 MOL     -0.524081
    156 C51        -3.9940   -0.7840    0.3050 c3        1 MOL      0.223895
    157 C52        -3.1010   -1.7300   -0.6010 c3        1 MOL     -0.077072
    158 C53        -1.6310   -1.3490   -0.5910 c         1 MOL      0.798759
    159 O21        -1.2330   -0.1750   -0.3420 o         1 MOL     -0.826818
    160 O22        -0.7550   -2.1060   -0.8180 o         1 MOL     -0.826818
    161 H72        -5.4810    0.5490   -1.3500 hn        1 MOL     -0.008655
    162 H73        -5.6350   -2.1030   -0.1350 h1        1 MOL      0.137191
    163 H74        -3.7100   -0.9800    1.3370 hc        1 MOL     -0.027283
    164 H75        -3.7350    0.2110   -0.0490 hc        1 MOL     -0.027283
    165 H76        -3.4950   -1.4730   -1.5960 hc        1 MOL     -0.041063
    166 H77        -3.3390   -2.7660   -0.4060 hc        1 MOL     -0.041063
    167 N15        -6.8920    0.2270    1.6800 n         1 MOL     -0.063759
    168 C54        -7.7880    0.4390    2.7880 c3        1 MOL     -0.235223
    169 H78        -7.7250   -0.4070    3.4730 h1        1 MOL      0.098287
    170 H79        -7.5080    1.3520    3.3130 h1        1 MOL      0.098287
    171 H80        -8.8090    0.5310    2.4190 h1        1 MOL      0.098287
    172 H81        -6.8610    0.9180    0.9510 hn        1 MOL      0.192643
    173 Ca1         1.3650   -0.4080   -1.1480 Ca        1 MOL      1.789761
    174 O23         0.9790    2.0210   -2.3420 oh        1 MOL     -0.910744
    175 H82         1.6160    2.2710   -3.0090 ho        1 MOL      0.422804
    176 H83         0.4210    2.7910   -2.2500 ho        1 MOL      0.422804
    177 O24         1.6240   -0.2950   -3.8040 oh        1 MOL     -0.910744
    178 H84         1.4760    0.0520   -4.6910 ho        1 MOL      0.422804
    179 H85         1.9070   -1.1990   -3.9510 ho        1 MOL      0.422804
@<TRIPOS>BOND
     1    1    2 1   
     2    1    4 1   
     3    1    5 1   
     4    1    6 1   
     5    2    3 2   
     6    2    7 1   
     7    7    8 1   
     8    7   15 1   
     9    8    9 1   
    10    8   11 1   
    11    8   16 1   
    12    9   10 2   
    13    9   19 1   
    14   11   12 1   
    15   11   17 1   
    16   11   18 1   
    17   12   13 1   
    18   12   14 1   
    19   19   20 1   
    20   19   28 1   
    21   20   21 1   
    22   20   23 1   
    23   20   29 1   
    24   21   22 2   
    25   21   41 1   
    26   23   24 1   
    27   23   30 1   
    28   23   31 1   
    29   24   25 1   
    30   24   32 1   
    31   24   33 1   
    32   25   26 1   
    33   25   34 1   
    34   25   35 1   
    35   26   27 1   
    36   26   36 1   
    37   26   37 1   
    38   27   38 1   
    39   27   39 1   
    40   27   40 1   
    41   41   42 1   
    42   41   49 1   
    43   42   43 1   
    44   42   45 1   
    45   42   50 1   
    46   43   44 2   
    47   43   53 1   
    48   45   46 1   
    49   45   51 1   
    50   45   52 1   
    51   46   47 1   
    52   46   48 1   
    53   53   54 1   
    54   53   57 1   
    55   54   55 1   
    56   54   58 1   
    57   54   59 1   
    58   55   56 2   
    59   55   60 1   
    60   60   61 1   
    61   60   68 1   
    62   61   62 1   
    63   61   64 1   
    64   61   69 1   
    65   62   63 2   
    66   62   74 1   
    67   64   65 1   
    68   64   70 1   
    69   64   71 1   
    70   65   66 1   
    71   65   67 2   
    72   66   72 1   
    73   66   73 1   
    74   74   75 1   
    75   74   78 1   
    76   75   76 1   
    77   75   79 1   
    78   75   80 1   
    79   76   77 2   
    80   76   81 1   
    81   81   82 1   
    82   81   93 1   
    83   82   83 1   
    84   82   85 1   
    85   82   94 1   
    86   83   84 2   
    87   83  102 1   
    88   85   86 1   
    89   85   95 1   
    90   85   96 1   
    91   86   87 ar  
    92   86   88 ar  
    93   87   89 ar  
    94   87   97 1   
    95   88   90 ar  
    96   88   98 1   
    97   89   91 ar  
    98   89   99 1   
    99   90   91 ar  
   100   90  100 1   
   101   91   92 1   
   102   92  101 1   
   103  102  103 1   
   104  102  110 1   
   105  103  104 1   
   106  103  106 1   
   107  103  111 1   
   108  104  105 2   
   109  104  121 1   
   110  106  107 1   
   111  106  108 1   
   112  106  112 1   
   113  107  109 1   
   114  107  113 1   
   115  107  114 1   
   116  108  115 1   
   117  108  116 1   
   118  108  117 1   
   119  109  118 1   
   120  109  119 1   
   121  109  120 1   
   122  121  122 1   
   123  121  127 1   
   124  122  123 1   
   125  122  125 1   
   126  122  128 1   
   127  123  124 2   
   128  123  132 1   
   129  125  126 1   
   130  125  129 1   
   131  125  130 1   
   132  126  131 1   
   133  132  133 1   
   134  132  137 1   
   135  133  134 1   
   136  133  136 1   
   137  133  138 1   
   138  134  135 2   
   139  134  142 1   
   140  136  139 1   
   141  136  140 1   
   142  136  141 1   
   143  142  143 1   
   144  142  147 1   
   145  143  144 1   
   146  143  146 1   
   147  143  148 1   
   148  144  145 2   
   149  144  152 1   
   150  146  149 1   
   151  146  150 1   
   152  146  151 1   
   153  152  153 1   
   154  152  161 1   
   155  153  154 1   
   156  153  156 1   
   157  153  162 1   
   158  154  155 2   
   159  154  167 1   
   160  156  157 1   
   161  156  163 1   
   162  156  164 1   
   163  157  158 1   
   164  157  165 1   
   165  157  166 1   
   166  158  159 1   
   167  158  160 1   
   168  167  168 1   
   169  167  172 1   
   170  168  169 1   
   171  168  170 1   
   172  168  171 1   
   173  174  175 1   
   174  174  176 1   
   175  177  178 1   
   176  177  179 1   
@<TRIPOS>SUBSTRUCTURE
     1 MOL         1 TEMP              0 ****  ****    0 ROOT
