@<TRIPOS>MOLECULE
MOL
  189   185     1     0     0
SMALL
resp


@<TRIPOS>ATOM
      1 C1          0.2810    2.3700    5.8900 c3        1 MOL     -0.348768
      2 C2         -0.1600    2.0160    4.4440 c         1 MOL      0.699775
      3 O1          0.4850    2.4600    3.5120 o         1 MOL     -0.632381
      4 H1          0.3840    1.4540    6.4720 hc        1 MOL      0.093148
      5 H2          1.2370    2.8920    5.8620 hc        1 MOL      0.093148
      6 H3         -0.4700    3.0110    6.3520 hc        1 MOL      0.093148
      7 N1         -1.2480    1.2950    4.2340 n         1 MOL     -0.584123
      8 C3         -1.9480    1.2710    2.9570 c3        1 MOL      0.171552
      9 C4         -2.4320    2.6690    2.5650 c         1 MOL      0.562101
     10 O2         -3.3470    3.1500    3.1490 o         1 MOL     -0.558841
     11 C5         -3.1020    0.2610    2.8720 c3        1 MOL     -0.400435
     12 C6         -3.7590    0.1760    1.5930 c         1 MOL      0.910741
     13 O3         -4.8070   -0.5110    1.5680 o         1 MOL     -0.741959
     14 O4         -3.3480    0.8230    0.6280 o         1 MOL     -0.741959
     15 H4         -1.7040    0.8010    4.9810 hn        1 MOL      0.322794
     16 H5         -1.2100    0.8800    2.2510 h1        1 MOL     -0.019530
     17 H6         -3.8170    0.6880    3.5750 hc        1 MOL      0.103133
     18 H7         -2.7000   -0.7100    3.1580 hc        1 MOL      0.103133
     19 N2         -1.8130    3.3110    1.6260 n         1 MOL     -0.197243
     20 C7         -1.9830    4.7050    1.1980 c3        1 MOL      0.058882
     21 C8         -3.3040    4.8340    0.4040 c         1 MOL      0.245919
     22 O5         -4.1090    5.7600    0.6180 o         1 MOL     -0.465809
     23 C9         -0.8620    5.1250    0.2400 c3        1 MOL     -0.040821
     24 C10         0.4180    5.3960    1.0280 c3        1 MOL     -0.081032
     25 C11         1.5690    5.2590   -0.0180 c3        1 MOL     -0.132277
     26 C12         2.9830    5.5990    0.4300 c3        1 MOL      0.339840
     27 N3          4.0300    5.7820   -0.6680 n4        1 MOL     -0.665476
     28 H8         -1.1790    2.7680    1.0670 hn        1 MOL      0.110795
     29 H9         -2.0660    5.4490    1.9950 h1        1 MOL      0.064169
     30 H10        -1.0980    6.0500   -0.2890 hc        1 MOL      0.058202
     31 H11        -0.6990    4.2280   -0.3640 hc        1 MOL      0.058202
     32 H12         0.6010    4.7970    1.9110 hc        1 MOL      0.060643
     33 H13         0.3680    6.4120    1.4130 hc        1 MOL      0.060643
     34 H14         1.3090    5.8560   -0.8930 hc        1 MOL      0.040086
     35 H15         1.6160    4.2270   -0.3500 hc        1 MOL      0.040086
     36 H16         3.2870    4.8080    1.1120 hx        1 MOL      0.004940
     37 H17         2.9860    6.5110    1.0330 hx        1 MOL      0.004940
     38 H18         3.8410    5.2540   -1.5030 hn        1 MOL      0.383297
     39 H19         4.0230    6.7740   -0.9000 hn        1 MOL      0.383297
     40 H20         4.9490    5.6910   -0.2800 hn        1 MOL      0.383297
     41 N4         -3.5060    3.8920   -0.5360 n         1 MOL      0.031439
     42 C13        -4.6240    4.1240   -1.3820 c3        1 MOL     -0.197178
     43 C14        -5.9570    3.7240   -0.8480 c         1 MOL      0.425668
     44 O6         -6.9690    4.3490   -0.9920 o         1 MOL     -0.506593
     45 C15        -4.4740    3.3330   -2.7110 c3        1 MOL      0.143635
     46 C16        -3.0370    3.3130   -3.2810 c         1 MOL      0.549786
     47 O7         -2.7080    4.2080   -4.1070 o         1 MOL     -0.624919
     48 O8         -2.3070    2.3080   -2.9830 o         1 MOL     -0.624919
     49 H21        -2.8010    3.2000   -0.7460 hn        1 MOL     -0.011053
     50 H22        -4.6840    5.1210   -1.8270 h1        1 MOL      0.095313
     51 H23        -5.1060    3.7970   -3.4660 hc        1 MOL     -0.011802
     52 H24        -4.7820    2.3060   -2.5390 hc        1 MOL     -0.011802
     53 N5         -5.7920    2.6890   -0.0090 n         1 MOL      0.002667
     54 C17        -6.9540    2.0770    0.6830 c3        1 MOL     -0.394118
     55 C18        -7.6400    0.9400   -0.1090 c         1 MOL      0.595876
     56 O9         -8.8010    0.6150    0.0520 o         1 MOL     -0.570405
     57 H25        -4.9140    2.2350    0.1440 hn        1 MOL      0.130133
     58 H26        -7.7380    2.8210    0.8230 h1        1 MOL      0.158277
     59 H27        -6.7240    1.6840    1.6720 h1        1 MOL      0.158277
     60 N6         -6.8910    0.3540   -1.0740 n         1 MOL     -0.339991
     61 C19        -7.3260   -0.8180   -1.8320 c3        1 MOL      0.020237
     62 C20        -7.3220   -2.1650   -1.0820 c         1 MOL      0.382164
     63 O10        -7.7920   -3.2260   -1.6140 o         1 MOL     -0.539522
     64 C21        -6.5280   -0.8850   -3.1630 c3        1 MOL     -0.152602
     65 C22        -4.9700   -0.7520   -3.0480 c         1 MOL      0.682510
     66 O11        -4.2410   -0.9190   -4.0490 o         1 MOL     -0.678956
     67 O12        -4.3570   -0.5450   -1.9960 o         1 MOL     -0.678956
     68 H28        -5.9530    0.6950   -1.2070 hn        1 MOL      0.149841
     69 H29        -8.3570   -0.8790   -2.1820 h1        1 MOL      0.096455
     70 H30        -6.9460   -0.0920   -3.7840 hc        1 MOL      0.067692
     71 H31        -6.8540   -1.7990   -3.6730 hc        1 MOL      0.067692
     72 N7         -6.9330   -2.0910    0.1750 n         1 MOL     -0.174155
     73 C23        -6.7800   -3.2080    1.1310 c3        1 MOL     -0.352763
     74 C24        -5.5380   -4.0920    0.9510 c         1 MOL      0.646393
     75 O13        -5.3140   -5.0200    1.7090 o         1 MOL     -0.592390
     76 H32        -6.7240   -1.1530    0.5000 hn        1 MOL      0.288814
     77 H33        -7.6930   -3.7770    0.9590 h1        1 MOL      0.158105
     78 H34        -6.7970   -2.9380    2.1890 h1        1 MOL      0.158105
     79 N8         -4.6430   -3.7220    0.0370 n         1 MOL     -0.376583
     80 C25        -3.3030   -4.3140   -0.1880 c3        1 MOL     -0.027919
     81 C26        -2.1290   -3.4230    0.2230 c         1 MOL      0.730283
     82 O14        -2.0490   -2.2850   -0.2710 o         1 MOL     -0.745154
     83 C27        -2.9800   -4.7900   -1.5920 c3        1 MOL      0.218866
     84 C28        -1.7290   -5.6160   -1.7650 c3        1 MOL     -0.156243
     85 O15        -4.0170   -5.7060   -1.9010 oh        1 MOL     -0.640322
     86 H35        -4.8030   -2.7940   -0.3290 hn        1 MOL      0.258071
     87 H36        -3.2190   -5.2040    0.4380 h1        1 MOL      0.063565
     88 H37        -2.9560   -4.0050   -2.3450 h1        1 MOL      0.163372
     89 H38        -4.1300   -6.3750   -1.2150 ho        1 MOL      0.416331
     90 H39        -0.8540   -4.9630   -1.6510 hc        1 MOL      0.029777
     91 H40        -1.6950   -6.4340   -1.0530 hc        1 MOL      0.029777
     92 H41        -1.6430   -5.9830   -2.7900 hc        1 MOL      0.029777
     93 N9         -1.1890   -3.9430    1.0060 n         1 MOL     -0.625853
     94 C29         0.1210   -3.3060    1.3330 c3        1 MOL      0.064933
     95 C30         1.1670   -3.8340    0.3720 c         1 MOL      0.571974
     96 O16         1.2530   -5.0210    0.0700 o         1 MOL     -0.550456
     97 C31         0.5530   -3.4410    2.8430 c3        1 MOL      0.078861
     98 C32        -0.2740   -2.4830    3.6880 c3        1 MOL      0.128324
     99 C33         2.0730   -3.2630    3.1200 c3        1 MOL     -0.263554
    100 C34        -0.1950   -2.5470    5.2280 c3        1 MOL     -0.383475
    101 H42        -1.4060   -4.8170    1.4590 hn        1 MOL      0.325864
    102 H43         0.0100   -2.2450    1.1110 h1        1 MOL      0.123893
    103 H44         0.2750   -4.4200    3.2330 hc        1 MOL      0.032531
    104 H45        -1.3110   -2.4940    3.3600 hc        1 MOL      0.012835
    105 H46         0.1270   -1.4980    3.4290 hc        1 MOL      0.012835
    106 H47         2.5380   -2.3610    2.7210 hc        1 MOL      0.053876
    107 H48         2.2400   -3.1350    4.1850 hc        1 MOL      0.053876
    108 H49         2.5630   -4.1220    2.6470 hc        1 MOL      0.053876
    109 H50        -0.9810   -1.9100    5.6540 hc        1 MOL      0.096525
    110 H51        -0.1540   -3.5280    5.7050 hc        1 MOL      0.096525
    111 H52         0.7790   -2.1050    5.4080 hc        1 MOL      0.096525
    112 N10         2.0500   -2.9030   -0.1160 n         1 MOL     -0.049217
    113 C35         3.1160   -3.0790   -1.1860 c3        1 MOL     -0.169568
    114 C36         4.5260   -2.6530   -0.6360 c         1 MOL      0.573181
    115 O17         4.5950   -2.2440    0.5340 o         1 MOL     -0.445984
    116 C37         2.6850   -2.3110   -2.4070 c3        1 MOL      0.360904
    117 C38         1.3060   -2.6100   -2.9280 c3        1 MOL     -0.175459
    118 O18         2.7080   -0.9760   -2.0440 oh        1 MOL     -0.750133
    119 H53         1.9280   -1.9450    0.1840 hn        1 MOL     -0.349489
    120 H54         3.1660   -4.1650   -1.2820 h1        1 MOL      0.096568
    121 H55         3.2970   -2.6330   -3.2550 h1        1 MOL      0.005113
    122 H56         2.0330   -0.8170   -1.3810 ho        1 MOL      0.595210
    123 H57         1.0630   -2.1490   -3.8840 hc        1 MOL      0.062411
    124 H58         1.3280   -3.6770   -3.1650 hc        1 MOL      0.062411
    125 H59         0.5430   -2.3650   -2.1830 hc        1 MOL      0.062411
    126 N11         5.6120   -2.7750   -1.3960 n         1 MOL     -0.463210
    127 C39         7.0590   -2.7630   -0.9310 c3        1 MOL      0.037486
    128 C40         7.4460   -1.4640   -0.2020 c         1 MOL      0.236869
    129 O19         8.0400   -1.4600    0.8610 o         1 MOL     -0.413388
    130 C41         7.8720   -2.9920   -2.2460 c3        1 MOL      0.224829
    131 C42         9.3370   -3.1660   -1.7550 c3        1 MOL     -0.504044
    132 O20         7.4860   -4.2730   -2.7780 oh        1 MOL     -0.604635
    133 H60         5.4960   -3.1570   -2.3160 hn        1 MOL      0.280915
    134 H61         7.1290   -3.6130   -0.2550 h1        1 MOL      0.162524
    135 H62         7.7690   -2.1460   -2.9250 h1        1 MOL      0.054496
    136 H63         8.2780   -4.7380   -3.0460 ho        1 MOL      0.428672
    137 H64         9.3940   -4.1080   -1.2180 hc        1 MOL      0.148645
    138 H65         9.9330   -3.3060   -2.6570 hc        1 MOL      0.148645
    139 H66         9.6690   -2.2620   -1.2500 hc        1 MOL      0.148645
    140 N12         6.9990   -0.2780   -0.6990 n         1 MOL     -0.354804
    141 C43         7.1330    1.0100    0.0530 c3        1 MOL      0.188477
    142 C44         6.2410    0.9990    1.2490 c         1 MOL      0.297788
    143 O21         6.7320    1.4200    2.3330 o         1 MOL     -0.500869
    144 C45         6.9370    2.1780   -0.9200 c3        1 MOL     -0.194180
    145 C46         7.9620    2.2710   -2.0940 c3        1 MOL      0.366063
    146 C47         7.7850    3.5640   -2.9680 c3        1 MOL     -0.084739
    147 C48         8.7390    3.7170   -4.0980 c3        1 MOL     -0.117703
    148 N13        10.1550    3.7630   -3.6330 n4        1 MOL     -0.102710
    149 H67         6.5970   -0.2620   -1.6320 hn        1 MOL      0.272461
    150 H68         8.1250    1.1170    0.5000 h1        1 MOL      0.083074
    151 H69         7.0910    3.1260   -0.4010 hc        1 MOL      0.023040
    152 H70         5.9190    2.1090   -1.3100 hc        1 MOL      0.023040
    153 H71         7.8640    1.3240   -2.6300 hc        1 MOL     -0.087840
    154 H72         8.9540    2.2970   -1.6290 hc        1 MOL     -0.087840
    155 H73         7.8850    4.3980   -2.2670 hc        1 MOL      0.036035
    156 H74         6.7850    3.5580   -3.4070 hc        1 MOL      0.036035
    157 H75         8.7400    4.6880   -4.5910 hx        1 MOL      0.118917
    158 H76         8.6020    2.8550   -4.7560 hx        1 MOL      0.118917
    159 H77        10.3430    4.4520   -2.9270 hn        1 MOL      0.207198
    160 H78        10.5060    2.8930   -3.2650 hn        1 MOL      0.207198
    161 H79        10.7500    3.9670   -4.4230 hn        1 MOL      0.207198
    162 N14         4.9670    0.6530    1.1660 n         1 MOL     -0.122659
    163 C49         4.0430    0.7370    2.2900 c3        1 MOL     -0.297067
    164 C50         4.3620   -0.2130    3.4740 c         1 MOL      0.511862
    165 O22         4.0950    0.0210    4.6300 o         1 MOL     -0.539661
    166 C51         2.6590    0.4840    1.7620 c3        1 MOL     -0.021238
    167 C52         1.9850    1.4290    0.7460 c3        1 MOL      0.103717
    168 C53         0.6940    0.8130    0.1680 c         1 MOL      0.457351
    169 O23         0.6760   -0.3880   -0.1980 o         1 MOL     -0.555735
    170 O24        -0.2910    1.5410   -0.0590 o         1 MOL     -0.555735
    171 H80         4.6010    0.2260    0.3230 hn        1 MOL      0.132511
    172 H81         4.0280    1.7430    2.7070 h1        1 MOL      0.150975
    173 H82         2.0310    0.2380    2.6120 hc        1 MOL      0.116842
    174 H83         2.6630   -0.4870    1.2750 hc        1 MOL      0.116842
    175 H84         2.6510    1.7330   -0.0720 hc        1 MOL     -0.011404
    176 H85         1.6760    2.3720    1.1960 hc        1 MOL     -0.011404
    177 N15         5.0810   -1.2680    3.0910 n         1 MOL     -0.056920
    178 C54         5.7730   -2.1770    4.0750 c3        1 MOL     -0.230748
    179 H86         5.1300   -3.0280    4.2960 h1        1 MOL      0.096088
    180 H87         6.7100   -2.5320    3.6460 h1        1 MOL      0.096088
    181 H88         5.9780   -1.6290    4.9940 h1        1 MOL      0.096088
    182 H89         4.9750   -1.5230    2.1120 hn        1 MOL      0.182984
    183 Ca1        -1.9210    0.0410   -1.4340 Ca        1 MOL      1.755179
    184 O25        -1.8790   -1.7860   -3.3030 oh        1 MOL     -0.917204
    185 H90        -2.7550   -1.6460   -3.6510 ho        1 MOL      0.410291
    186 H91        -1.5080   -2.4870   -3.8360 ho        1 MOL      0.410291
    187 O26         0.2560    0.5610   -2.9190 oh        1 MOL     -0.917204
    188 H92         0.0940    1.4940   -3.0990 ho        1 MOL      0.410291
    189 H93         0.8510    0.2840   -3.6090 ho        1 MOL      0.410291
@<TRIPOS>BOND
     1    1    2 1   
     2    1    4 1   
     3    1    5 1   
     4    1    6 1   
     5    2    3 2   
     6    2    7 1   
     7    7    8 1   
     8    7   15 1   
     9    8    9 1   
    10    8   11 1   
    11    8   16 1   
    12    9   10 2   
    13    9   19 1   
    14   11   12 1   
    15   11   17 1   
    16   11   18 1   
    17   12   13 1   
    18   12   14 1   
    19   19   20 1   
    20   19   28 1   
    21   20   21 1   
    22   20   23 1   
    23   20   29 1   
    24   21   22 2   
    25   21   41 1   
    26   23   24 1   
    27   23   30 1   
    28   23   31 1   
    29   24   25 1   
    30   24   32 1   
    31   24   33 1   
    32   25   26 1   
    33   25   34 1   
    34   25   35 1   
    35   26   27 1   
    36   26   36 1   
    37   26   37 1   
    38   27   38 1   
    39   27   39 1   
    40   27   40 1   
    41   41   42 1   
    42   41   49 1   
    43   42   43 1   
    44   42   45 1   
    45   42   50 1   
    46   43   44 2   
    47   43   53 1   
    48   45   46 1   
    49   45   51 1   
    50   45   52 1   
    51   46   47 1   
    52   46   48 1   
    53   53   54 1   
    54   53   57 1   
    55   54   55 1   
    56   54   58 1   
    57   54   59 1   
    58   55   56 2   
    59   55   60 1   
    60   60   61 1   
    61   60   68 1   
    62   61   62 1   
    63   61   64 1   
    64   61   69 1   
    65   62   63 2   
    66   62   72 1   
    67   64   65 1   
    68   64   70 1   
    69   64   71 1   
    70   65   66 1   
    71   65   67 1   
    72   72   73 1   
    73   72   76 1   
    74   73   74 1   
    75   73   77 1   
    76   73   78 1   
    77   74   75 2   
    78   74   79 1   
    79   79   80 1   
    80   79   86 1   
    81   80   81 1   
    82   80   83 1   
    83   80   87 1   
    84   81   82 2   
    85   81   93 1   
    86   83   84 1   
    87   83   85 1   
    88   83   88 1   
    89   84   90 1   
    90   84   91 1   
    91   84   92 1   
    92   85   89 1   
    93   93   94 1   
    94   93  101 1   
    95   94   95 1   
    96   94   97 1   
    97   94  102 1   
    98   95   96 2   
    99   95  112 1   
   100   97   98 1   
   101   97   99 1   
   102   97  103 1   
   103   98  100 1   
   104   98  104 1   
   105   98  105 1   
   106   99  106 1   
   107   99  107 1   
   108   99  108 1   
   109  100  109 1   
   110  100  110 1   
   111  100  111 1   
   112  112  113 1   
   113  112  119 1   
   114  113  114 1   
   115  113  116 1   
   116  113  120 1   
   117  114  115 2   
   118  114  126 1   
   119  116  117 1   
   120  116  118 1   
   121  116  121 1   
   122  117  123 1   
   123  117  124 1   
   124  117  125 1   
   125  118  122 1   
   126  126  127 1   
   127  126  133 1   
   128  127  128 1   
   129  127  130 1   
   130  127  134 1   
   131  128  129 2   
   132  128  140 1   
   133  130  131 1   
   134  130  132 1   
   135  130  135 1   
   136  131  137 1   
   137  131  138 1   
   138  131  139 1   
   139  132  136 1   
   140  140  141 1   
   141  140  149 1   
   142  141  142 1   
   143  141  144 1   
   144  141  150 1   
   145  142  143 2   
   146  142  162 1   
   147  144  145 1   
   148  144  151 1   
   149  144  152 1   
   150  145  146 1   
   151  145  153 1   
   152  145  154 1   
   153  146  147 1   
   154  146  155 1   
   155  146  156 1   
   156  147  148 1   
   157  147  157 1   
   158  147  158 1   
   159  148  159 1   
   160  148  160 1   
   161  148  161 1   
   162  162  163 1   
   163  162  171 1   
   164  163  164 1   
   165  163  166 1   
   166  163  172 1   
   167  164  165 2   
   168  164  177 1   
   169  166  167 1   
   170  166  173 1   
   171  166  174 1   
   172  167  168 1   
   173  167  175 1   
   174  167  176 1   
   175  168  169 1   
   176  168  170 1   
   177  177  178 1   
   178  177  182 1   
   179  178  179 1   
   180  178  180 1   
   181  178  181 1   
   182  184  185 1   
   183  184  186 1   
   184  187  188 1   
   185  187  189 1   
@<TRIPOS>SUBSTRUCTURE
     1 MOL         1 TEMP              0 ****  ****    0 ROOT
