@<TRIPOS>MOLECULE
MOL
  189   185     1     0     0
SMALL
resp


@<TRIPOS>ATOM
      1 C1         -0.0300    3.7100   -4.0280 c3        1 MOL     -0.377688
      2 C2          0.7600    3.1530   -2.8020 c         1 MOL      0.672747
      3 O1          0.2480    3.4540   -1.7340 o         1 MOL     -0.527454
      4 H1         -1.0150    4.0460   -3.7020 hc        1 MOL      0.092636
      5 H2          0.5150    4.5480   -4.4610 hc        1 MOL      0.092636
      6 H3         -0.1440    2.9250   -4.7740 hc        1 MOL      0.092636
      7 N1          1.9230    2.5470   -2.9560 n         1 MOL     -0.631478
      8 C3          2.7950    1.9040   -1.9490 c3        1 MOL      0.199545
      9 C4          3.6490    2.9120   -1.1660 c         1 MOL      0.500869
     10 O2          4.8810    2.9150   -1.1500 o         1 MOL     -0.443738
     11 C5          3.5180    0.6710   -2.5520 c3        1 MOL     -0.151398
     12 C6          4.2200   -0.1080   -1.4150 c         1 MOL      0.519067
     13 O3          3.6660   -0.1710   -0.2940 o         1 MOL     -0.627260
     14 O4          5.2750   -0.7060   -1.7030 o         1 MOL     -0.627260
     15 H4          2.2140    2.4470   -3.9220 hn        1 MOL      0.312931
     16 H5          2.0920    1.3740   -1.3060 h1        1 MOL      0.041776
     17 H6          4.1960    0.9550   -3.3530 hc        1 MOL      0.044837
     18 H7          2.8850   -0.1110   -2.9700 hc        1 MOL      0.044837
     19 N2          2.9600    3.9860   -0.6800 n         1 MOL     -0.454801
     20 C7          3.5760    5.1460   -0.0300 c3        1 MOL      0.002270
     21 C8          4.4380    4.8360    1.2020 c         1 MOL      0.430930
     22 O5          5.1990    5.6890    1.6410 o         1 MOL     -0.551052
     23 C9          2.4530    6.1910    0.3840 c3        1 MOL     -0.080157
     24 C10         1.7040    6.8160   -0.7610 c3        1 MOL      0.304442
     25 C11         0.5970    7.7180   -0.0870 c3        1 MOL     -0.132784
     26 C12        -0.1420    8.6560   -1.0650 c3        1 MOL      0.033213
     27 N3         -1.0200    8.0070   -2.0750 n4        1 MOL     -0.444512
     28 H8          1.9670    3.9210   -0.7930 hn        1 MOL      0.281736
     29 H9          4.2050    5.6930   -0.7280 h1        1 MOL      0.085659
     30 H10         2.9840    6.9470    0.9540 hc        1 MOL      0.042273
     31 H11         1.7150    5.7110    1.0230 hc        1 MOL      0.042273
     32 H12         1.1860    6.0850   -1.3820 hc        1 MOL     -0.087494
     33 H13         2.2830    7.5390   -1.3360 hc        1 MOL     -0.087494
     34 H14         1.0810    8.3180    0.6860 hc        1 MOL      0.060474
     35 H15        -0.1830    7.0760    0.3230 hc        1 MOL      0.060474
     36 H16         0.5290    9.3590   -1.5530 hx        1 MOL      0.091382
     37 H17        -0.7600    9.3540   -0.4860 hx        1 MOL      0.091382
     38 H18        -0.4760    7.5420   -2.7930 hn        1 MOL      0.355917
     39 H19        -1.3920    7.1540   -1.6890 hn        1 MOL      0.355917
     40 H20        -1.7040    8.6350   -2.4630 hn        1 MOL      0.355917
     41 N4          4.4230    3.5870    1.6820 n         1 MOL     -0.142449
     42 C13         5.2520    3.0820    2.8250 c3        1 MOL      0.063643
     43 C14         6.3530    2.1550    2.3390 c         1 MOL      0.330871
     44 O6          7.2490    1.8150    3.1250 o         1 MOL     -0.499224
     45 C15         4.3200    2.3900    3.8000 c3        1 MOL     -0.204082
     46 C16         3.5040    1.2260    3.1950 c         1 MOL      0.714109
     47 O7          4.0410    0.1440    3.0370 o         1 MOL     -0.709630
     48 O8          2.3620    1.4860    2.7680 o         1 MOL     -0.709630
     49 H21         3.7070    2.9350    1.4050 hn        1 MOL      0.130267
     50 H22         5.7440    3.8770    3.3940 h1        1 MOL      0.090898
     51 H23         3.6380    3.1460    4.1830 hc        1 MOL      0.040243
     52 H24         4.8930    2.0000    4.6420 hc        1 MOL      0.040243
     53 N5          6.2540    1.7160    1.0240 n         1 MOL     -0.059823
     54 C17         7.2450    0.9660    0.3150 c3        1 MOL     -0.098662
     55 C18         7.4280   -0.4740    0.8700 c         1 MOL      0.478646
     56 O9          8.5530   -0.9870    0.7820 o         1 MOL     -0.559709
     57 H25         5.5240    2.1400    0.4640 hn        1 MOL      0.046251
     58 H26         8.1930    1.4940    0.2730 h1        1 MOL      0.071716
     59 H27         6.8060    0.9220   -0.6830 h1        1 MOL      0.071716
     60 N6          6.3390   -1.1530    1.3210 n         1 MOL     -0.278511
     61 C19         6.4660   -2.5770    1.6840 c3        1 MOL     -0.004032
     62 C20         6.5430   -3.5440    0.5500 c         1 MOL      0.396272
     63 O10         6.7480   -4.7520    0.8870 o         1 MOL     -0.525495
     64 C21         5.5270   -3.0770    2.7640 c3        1 MOL     -0.241857
     65 C22         4.0520   -2.8800    2.3660 c         1 MOL      0.856136
     66 O11         3.7040   -2.8610    1.1300 o         1 MOL     -0.767378
     67 O12         3.2120   -2.6660    3.2700 o         1 MOL     -0.767378
     68 H28         5.4460   -0.6680    1.2900 hn        1 MOL      0.269845
     69 H29         7.4680   -2.6360    2.1250 h1        1 MOL      0.118673
     70 H30         5.6150   -2.4160    3.6230 hc        1 MOL      0.079929
     71 H31         5.7320   -4.0970    3.0690 hc        1 MOL      0.079929
     72 N7          6.3440   -3.0860   -0.7070 n         1 MOL     -0.227166
     73 C23         6.2640   -4.0010   -1.9030 c3        1 MOL     -0.171128
     74 C24         4.8150   -4.4360   -2.2140 c         1 MOL      0.627958
     75 O13         4.8090   -5.3880   -3.0210 o         1 MOL     -0.584170
     76 H32         6.1450   -2.1190   -0.9310 hn        1 MOL      0.265896
     77 H33         6.8540   -4.8770   -1.6370 h1        1 MOL      0.092284
     78 H34         6.6520   -3.4190   -2.7370 h1        1 MOL      0.092284
     79 N8          3.7990   -3.8710   -1.5360 n         1 MOL     -0.572189
     80 C25         2.3760   -4.3070   -1.6680 c3        1 MOL      0.006770
     81 C26         1.3790   -3.1090   -1.5560 c         1 MOL      0.621502
     82 O14         1.6400   -2.1420   -0.8850 o         1 MOL     -0.575851
     83 C27         1.9740   -5.3070   -0.5950 c3        1 MOL      0.521320
     84 C28         2.3470   -6.6840   -1.0980 c3        1 MOL     -0.549000
     85 O15         2.6670   -5.1680    0.5990 oh        1 MOL     -0.635700
     86 H35         4.0240   -3.1860   -0.8190 hn        1 MOL      0.513531
     87 H36         2.2110   -4.6850   -2.6830 h1        1 MOL      0.048517
     88 H37         0.8980   -5.1370   -0.5620 h1        1 MOL     -0.102644
     89 H38         3.0940   -4.3120    0.6540 ho        1 MOL      0.368401
     90 H39         1.9760   -6.9780   -2.0780 hc        1 MOL      0.134603
     91 H40         3.4140   -6.8460   -0.9430 hc        1 MOL      0.134603
     92 H41         1.9270   -7.4000   -0.3860 hc        1 MOL      0.134603
     93 N9          0.2000   -3.2100   -2.2280 n         1 MOL     -0.644888
     94 C29        -0.9120   -2.2120   -2.3490 c3        1 MOL      0.020604
     95 C30        -2.1900   -2.9160   -1.9000 c         1 MOL      0.538036
     96 O16        -2.6000   -3.9450   -2.4570 o         1 MOL     -0.554295
     97 C31        -1.0730   -1.7570   -3.8600 c3        1 MOL      0.195569
     98 C32         0.1830   -1.0660   -4.3880 c3        1 MOL      0.094884
     99 C33        -2.2770   -0.9530   -4.1950 c3        1 MOL     -0.207330
    100 C34         0.2030   -0.8690   -5.9380 c3        1 MOL     -0.327856
    101 H42         0.1110   -4.0850   -2.7290 hn        1 MOL      0.310602
    102 H43        -0.7210   -1.2790   -1.8210 h1        1 MOL      0.103635
    103 H44        -1.1970   -2.6780   -4.4170 hc        1 MOL     -0.018090
    104 H45         1.0660   -1.6770   -4.1860 hc        1 MOL      0.021676
    105 H46         0.2570   -0.1200   -3.8580 hc        1 MOL      0.021676
    106 H47        -3.1830   -1.5170   -3.9630 hc        1 MOL      0.031183
    107 H48        -2.2970   -0.1680   -3.4350 hc        1 MOL      0.031183
    108 H49        -2.2670   -0.4670   -5.1760 hc        1 MOL      0.031183
    109 H50        -0.5610   -0.2150   -6.3410 hc        1 MOL      0.081034
    110 H51         1.1060   -0.3110   -6.1460 hc        1 MOL      0.081034
    111 H52         0.2310   -1.8840   -6.3330 hc        1 MOL      0.081034
    112 N10        -2.8850   -2.3260   -0.9520 n         1 MOL     -0.196150
    113 C35        -4.2230   -2.6600   -0.4460 c3        1 MOL      0.004001
    114 C36        -5.3960   -1.8690   -1.0960 c         1 MOL      0.329814
    115 O17        -5.0720   -0.9760   -1.9050 o         1 MOL     -0.332235
    116 C37        -4.2860   -2.3850    1.0820 c3        1 MOL      0.237766
    117 C38        -3.4600   -3.2530    1.9250 c3        1 MOL     -0.537270
    118 O18        -3.8970   -1.0020    1.3610 oh        1 MOL     -0.585232
    119 H53        -2.4810   -1.4620   -0.6130 hn        1 MOL      0.103352
    120 H54        -4.4740   -3.7030   -0.6370 h1        1 MOL      0.057437
    121 H55        -5.3150   -2.5140    1.4160 h1        1 MOL      0.015501
    122 H56        -2.9410   -0.9540    1.3660 ho        1 MOL      0.420361
    123 H57        -2.4370   -2.8950    1.7780 hc        1 MOL      0.146519
    124 H58        -3.8410   -3.2490    2.9500 hc        1 MOL      0.146519
    125 H59        -3.5210   -4.2920    1.5950 hc        1 MOL      0.146519
    126 N11        -6.5990   -2.2700   -0.7230 n         1 MOL     -0.282109
    127 C39        -7.7590   -1.5590   -1.0920 c3        1 MOL     -0.024263
    128 C40        -7.6740   -0.1440   -0.4900 c         1 MOL      0.361213
    129 O19        -7.9700    0.7650   -1.1540 o         1 MOL     -0.466028
    130 C41        -9.0750   -2.1850   -0.6670 c3        1 MOL      0.227007
    131 C42        -9.3070   -3.4540   -1.4590 c3        1 MOL     -0.434699
    132 O20        -9.1100   -2.5620    0.7010 oh        1 MOL     -0.634885
    133 H60        -6.7020   -3.1800   -0.2800 hn        1 MOL      0.275750
    134 H61        -7.7630   -1.3630   -2.1640 h1        1 MOL      0.111306
    135 H62        -9.8240   -1.4820   -1.0460 h1        1 MOL      0.066508
    136 H63       -10.0220   -2.8370    0.8660 ho        1 MOL      0.415464
    137 H64       -10.3670   -3.7210   -1.4050 hc        1 MOL      0.127418
    138 H65        -9.0280   -3.1930   -2.4740 hc        1 MOL      0.127418
    139 H66        -8.6730   -4.2790   -1.1390 hc        1 MOL      0.127418
    140 N12        -7.2900    0.0650    0.7510 n         1 MOL     -0.266435
    141 C43        -6.9660    1.2810    1.4500 c3        1 MOL     -0.022200
    142 C44        -5.9500    2.1790    0.7800 c         1 MOL      0.407523
    143 O21        -6.2140    3.3630    0.6450 o         1 MOL     -0.538232
    144 C45        -6.6410    1.0480    2.9290 c3        1 MOL     -0.094158
    145 C46        -7.9290    0.6510    3.7080 c3        1 MOL      0.177171
    146 C47        -7.8440    0.5580    5.2370 c3        1 MOL     -0.039925
    147 C48        -8.7570   -0.4570    5.8880 c3        1 MOL     -0.120334
    148 N13        -8.3470   -1.8530    5.6330 n4        1 MOL     -0.249383
    149 H67        -7.3220   -0.7690    1.3230 hn        1 MOL      0.212030
    150 H68        -7.8930    1.8560    1.3900 h1        1 MOL      0.094981
    151 H69        -6.1810    1.8930    3.4510 hc        1 MOL      0.023262
    152 H70        -5.9030    0.2500    2.9490 hc        1 MOL      0.023262
    153 H71        -8.4070   -0.2720    3.3720 hc        1 MOL     -0.030159
    154 H72        -8.6650    1.4160    3.4660 hc        1 MOL     -0.030159
    155 H73        -7.9350    1.5790    5.6030 hc        1 MOL      0.062818
    156 H74        -6.8580    0.1650    5.4860 hc        1 MOL      0.062818
    157 H75        -9.7450   -0.2870    5.4830 hx        1 MOL      0.117473
    158 H76        -8.7500   -0.3220    6.9740 hx        1 MOL      0.117473
    159 H77        -7.5380   -2.0720    6.2030 hn        1 MOL      0.271754
    160 H78        -9.0560   -2.5020    5.9470 hn        1 MOL      0.271754
    161 H79        -8.2120   -2.0150    4.6440 hn        1 MOL      0.271754
    162 N14        -4.8610    1.6650    0.1870 n         1 MOL      0.016812
    163 C49        -3.8780    2.4840   -0.5390 c3        1 MOL     -0.281739
    164 C50        -4.1930    2.7240   -2.0110 c         1 MOL      0.535262
    165 O22        -3.6350    3.6060   -2.6710 o         1 MOL     -0.598683
    166 C51        -2.5730    1.7020   -0.5880 c3        1 MOL      0.305830
    167 C52        -1.9690    1.6120    0.8270 c3        1 MOL     -0.265370
    168 C53        -0.9180    0.5060    1.0730 c         1 MOL      0.807840
    169 O23         0.2970    0.7280    0.8130 o         1 MOL     -0.732525
    170 O24        -1.3680   -0.6160    1.4280 o         1 MOL     -0.732525
    171 H80        -4.6120    0.7120    0.4140 hn        1 MOL      0.126825
    172 H81        -3.7730    3.4620   -0.0640 h1        1 MOL      0.125260
    173 H82        -1.8640    2.1820   -1.2560 hc        1 MOL     -0.051864
    174 H83        -2.9220    0.7200   -0.9100 hc        1 MOL     -0.051864
    175 H84        -2.8140    1.3570    1.4690 hc        1 MOL      0.032080
    176 H85        -1.6390    2.6130    1.0920 hc        1 MOL      0.032080
    177 N15        -4.9740    1.8590   -2.6770 n         1 MOL     -0.100120
    178 C54        -5.6610    2.1920   -3.9280 c3        1 MOL     -0.328827
    179 H86        -6.6830    2.5030   -3.7080 h1        1 MOL      0.119684
    180 H87        -5.1340    3.0050   -4.4270 h1        1 MOL      0.119684
    181 H88        -5.6790    1.3170   -4.5770 h1        1 MOL      0.119684
    182 H89        -5.1800    0.9340   -2.3400 hn        1 MOL      0.110586
    183 Ca1         1.9650   -0.9740    1.6190 Ca        1 MOL      1.717941
    184 O25         0.2290   -2.8380    1.7590 oh        1 MOL     -0.794273
    185 H90         0.0450   -3.6910    2.1450 ho        1 MOL      0.388490
    186 H91        -0.6290   -2.4520    1.5790 ho        1 MOL      0.388490
    187 O26         0.6300   -0.4280    3.9610 oh        1 MOL     -0.794273
    188 H92         0.3330   -1.0880    4.5840 ho        1 MOL      0.388490
    189 H93         1.0750    0.2280    4.4960 ho        1 MOL      0.388490
@<TRIPOS>BOND
     1    1    2 1   
     2    1    4 1   
     3    1    5 1   
     4    1    6 1   
     5    2    3 2   
     6    2    7 1   
     7    7    8 1   
     8    7   15 1   
     9    8    9 1   
    10    8   11 1   
    11    8   16 1   
    12    9   10 2   
    13    9   19 1   
    14   11   12 1   
    15   11   17 1   
    16   11   18 1   
    17   12   13 1   
    18   12   14 1   
    19   19   20 1   
    20   19   28 1   
    21   20   21 1   
    22   20   23 1   
    23   20   29 1   
    24   21   22 2   
    25   21   41 1   
    26   23   24 1   
    27   23   30 1   
    28   23   31 1   
    29   24   25 1   
    30   24   32 1   
    31   24   33 1   
    32   25   26 1   
    33   25   34 1   
    34   25   35 1   
    35   26   27 1   
    36   26   36 1   
    37   26   37 1   
    38   27   38 1   
    39   27   39 1   
    40   27   40 1   
    41   41   42 1   
    42   41   49 1   
    43   42   43 1   
    44   42   45 1   
    45   42   50 1   
    46   43   44 2   
    47   43   53 1   
    48   45   46 1   
    49   45   51 1   
    50   45   52 1   
    51   46   47 1   
    52   46   48 1   
    53   53   54 1   
    54   53   57 1   
    55   54   55 1   
    56   54   58 1   
    57   54   59 1   
    58   55   56 2   
    59   55   60 1   
    60   60   61 1   
    61   60   68 1   
    62   61   62 1   
    63   61   64 1   
    64   61   69 1   
    65   62   63 2   
    66   62   72 1   
    67   64   65 1   
    68   64   70 1   
    69   64   71 1   
    70   65   66 1   
    71   65   67 1   
    72   72   73 1   
    73   72   76 1   
    74   73   74 1   
    75   73   77 1   
    76   73   78 1   
    77   74   75 2   
    78   74   79 1   
    79   79   80 1   
    80   79   86 1   
    81   80   81 1   
    82   80   83 1   
    83   80   87 1   
    84   81   82 2   
    85   81   93 1   
    86   83   84 1   
    87   83   85 1   
    88   83   88 1   
    89   84   90 1   
    90   84   91 1   
    91   84   92 1   
    92   85   89 1   
    93   93   94 1   
    94   93  101 1   
    95   94   95 1   
    96   94   97 1   
    97   94  102 1   
    98   95   96 2   
    99   95  112 1   
   100   97   98 1   
   101   97   99 1   
   102   97  103 1   
   103   98  100 1   
   104   98  104 1   
   105   98  105 1   
   106   99  106 1   
   107   99  107 1   
   108   99  108 1   
   109  100  109 1   
   110  100  110 1   
   111  100  111 1   
   112  112  113 1   
   113  112  119 1   
   114  113  114 1   
   115  113  116 1   
   116  113  120 1   
   117  114  115 2   
   118  114  126 1   
   119  116  117 1   
   120  116  118 1   
   121  116  121 1   
   122  117  123 1   
   123  117  124 1   
   124  117  125 1   
   125  118  122 1   
   126  126  127 1   
   127  126  133 1   
   128  127  128 1   
   129  127  130 1   
   130  127  134 1   
   131  128  129 2   
   132  128  140 1   
   133  130  131 1   
   134  130  132 1   
   135  130  135 1   
   136  131  137 1   
   137  131  138 1   
   138  131  139 1   
   139  132  136 1   
   140  140  141 1   
   141  140  149 1   
   142  141  142 1   
   143  141  144 1   
   144  141  150 1   
   145  142  143 2   
   146  142  162 1   
   147  144  145 1   
   148  144  151 1   
   149  144  152 1   
   150  145  146 1   
   151  145  153 1   
   152  145  154 1   
   153  146  147 1   
   154  146  155 1   
   155  146  156 1   
   156  147  148 1   
   157  147  157 1   
   158  147  158 1   
   159  148  159 1   
   160  148  160 1   
   161  148  161 1   
   162  162  163 1   
   163  162  171 1   
   164  163  164 1   
   165  163  166 1   
   166  163  172 1   
   167  164  165 2   
   168  164  177 1   
   169  166  167 1   
   170  166  173 1   
   171  166  174 1   
   172  167  168 1   
   173  167  175 1   
   174  167  176 1   
   175  168  169 1   
   176  168  170 1   
   177  177  178 1   
   178  177  182 1   
   179  178  179 1   
   180  178  180 1   
   181  178  181 1   
   182  184  185 1   
   183  184  186 1   
   184  187  188 1   
   185  187  189 1   
@<TRIPOS>SUBSTRUCTURE
     1 MOL         1 TEMP              0 ****  ****    0 ROOT
