@<TRIPOS>MOLECULE
MOL
  182   178     1     0     0
SMALL
resp


@<TRIPOS>ATOM
      1 C1          2.1710    2.7770    5.6180 c3        1 MOL     -0.328790
      2 C2          1.7260    2.3290    4.2540 c         1 MOL      0.803280
      3 O1          2.5040    2.2010    3.3050 o         1 MOL     -0.620813
      4 H1          2.2170    3.8660    5.6450 hc        1 MOL      0.086249
      5 H2          1.4600    2.4260    6.3660 hc        1 MOL      0.086249
      6 H3          3.1570    2.3670    5.8320 hc        1 MOL      0.086249
      7 N1          0.4000    2.1460    4.0640 n         1 MOL     -0.613477
      8 C3         -0.2550    1.9610    2.7990 c3        1 MOL     -0.044354
      9 C4         -0.6450    3.2970    2.1690 c         1 MOL      0.513485
     10 O2         -1.1640    4.1800    2.9180 o         1 MOL     -0.521861
     11 C5         -1.4400    1.0610    3.0080 c3        1 MOL     -0.097042
     12 C6         -2.3000    0.7860    1.7780 c         1 MOL      0.759014
     13 O3         -1.9440    1.2580    0.6770 o         1 MOL     -0.789359
     14 O4         -3.3380    0.0810    1.9210 o         1 MOL     -0.789359
     15 H4         -0.2530    2.2650    4.8250 hn        1 MOL      0.326439
     16 H5          0.4500    1.3720    2.2140 h1        1 MOL      0.128152
     17 H6         -2.0270    1.5060    3.8080 hc        1 MOL      0.049033
     18 H7         -1.0700    0.1380    3.4550 hc        1 MOL      0.049033
     19 N2         -0.2140    3.6520    0.8970 n         1 MOL      0.025868
     20 C7          0.2410    4.9510    0.4340 c3        1 MOL     -0.214732
     21 C8         -0.9810    5.6470   -0.1850 c         1 MOL      0.581242
     22 O5         -1.2900    6.8240   -0.1270 o         1 MOL     -0.595686
     23 C9          1.2400    4.6130   -0.7120 c3        1 MOL     -0.166881
     24 C10         1.7780    5.8160   -1.5460 c3        1 MOL      0.040071
     25 C11         2.5100    6.8960   -0.7090 c3        1 MOL      0.051166
     26 C12         3.0240    8.0160   -1.5830 c3        1 MOL      0.022855
     27 N3          2.1250    9.1150   -1.8010 n4        1 MOL     -0.374373
     28 H8          0.3470    2.9230    0.4850 hn        1 MOL      0.057791
     29 H9          0.7200    5.6730    1.0830 h1        1 MOL      0.098568
     30 H10         0.7930    3.9510   -1.4670 hc        1 MOL      0.116353
     31 H11         2.1230    4.1870   -0.2410 hc        1 MOL      0.116353
     32 H12         1.0020    6.2870   -2.1500 hc        1 MOL     -0.021251
     33 H13         2.4760    5.3050   -2.2090 hc        1 MOL     -0.021251
     34 H14         3.3610    6.3790   -0.2590 hc        1 MOL      0.034433
     35 H15         1.8270    7.2820    0.0460 hc        1 MOL      0.034433
     36 H16         3.4110    7.6130   -2.5230 hx        1 MOL      0.075225
     37 H17         3.8470    8.5400   -1.0860 hx        1 MOL      0.075225
     38 H18         1.3980    8.8420   -2.4460 hn        1 MOL      0.335733
     39 H19         1.7270    9.4700   -0.9370 hn        1 MOL      0.335733
     40 H20         2.5490    9.9490   -2.1720 hn        1 MOL      0.335733
     41 N4         -1.8960    4.7950   -0.7350 n         1 MOL     -0.458585
     42 C13        -3.3170    5.1720   -1.0660 c3        1 MOL      0.165635
     43 C14        -4.2320    4.5770    0.0670 c         1 MOL      0.401211
     44 O6         -5.3580    5.0070    0.0390 o         1 MOL     -0.546922
     45 C15        -3.5710    4.5890   -2.4390 c3        1 MOL     -0.382059
     46 C16        -3.2530    3.1440   -2.6210 c         1 MOL      0.860440
     47 O7         -3.5260    2.7140   -3.7700 o         1 MOL     -0.745189
     48 O8         -2.7150    2.3640   -1.7840 o         1 MOL     -0.745189
     49 H21        -1.7320    3.7930   -0.7280 hn        1 MOL      0.272389
     50 H22        -3.4280    6.2360   -1.2540 h1        1 MOL      0.081130
     51 H23        -2.8440    5.0520   -3.1100 hc        1 MOL      0.106889
     52 H24        -4.5930    4.7990   -2.7330 hc        1 MOL      0.106889
     53 N5         -3.7920    3.7110    0.9520 n         1 MOL     -0.015848
     54 C17        -4.6990    3.0280    1.9130 c3        1 MOL     -0.144784
     55 C18        -5.6700    2.0150    1.3260 c         1 MOL      0.498467
     56 O9         -6.7460    1.7310    1.9190 o         1 MOL     -0.584011
     57 H25        -2.8640    3.3140    0.9220 hn        1 MOL     -0.097572
     58 H26        -5.1600    3.8180    2.5110 h1        1 MOL      0.110397
     59 H27        -4.0900    2.5270    2.6630 h1        1 MOL      0.110397
     60 N6         -5.3440    1.4420    0.1770 n         1 MOL     -0.223121
     61 C19        -6.3790    0.7080   -0.6590 c3        1 MOL     -0.080347
     62 C20        -6.6720   -0.7010   -0.1220 c         1 MOL      0.382001
     63 O10        -7.4190   -1.4570   -0.7530 o         1 MOL     -0.529715
     64 C21        -5.9160    0.5640   -2.1100 c3        1 MOL     -0.108716
     65 C22        -4.8560   -0.5540   -2.1910 c         1 MOL      0.603598
     66 N7         -5.0880   -1.4840   -3.0620 n         1 MOL     -0.734378
     67 O11        -3.8440   -0.5890   -1.5420 o         1 MOL     -0.740614
     68 H28        -4.4100    1.5560   -0.2020 hn        1 MOL      0.241396
     69 H29        -7.3320    1.2400   -0.5980 h1        1 MOL      0.140060
     70 H30        -5.4880    1.4840   -2.5030 hc        1 MOL      0.073114
     71 H31        -6.7640    0.3250   -2.7510 hc        1 MOL      0.073114
     72 H32        -5.9870   -1.5880   -3.5180 hn        1 MOL      0.364679
     73 H33        -4.3730   -2.1620   -3.2830 hn        1 MOL      0.364679
     74 N8         -6.0340   -1.1000    0.9880 n         1 MOL     -0.107407
     75 C23        -6.0590   -2.4070    1.6260 c3        1 MOL     -0.391798
     76 C24        -4.7380   -3.1640    1.6840 c         1 MOL      0.704030
     77 O12        -4.7180   -4.1770    2.4380 o         1 MOL     -0.587930
     78 H34        -5.3800   -0.4360    1.3580 hn        1 MOL      0.285162
     79 H35        -6.7280   -3.0380    1.0410 h1        1 MOL      0.165141
     80 H36        -6.5270   -2.2890    2.5970 h1        1 MOL      0.165141
     81 N9         -3.6230   -2.8020    1.0130 n         1 MOL     -0.553451
     82 C25        -2.4110   -3.6750    0.8540 c3        1 MOL      0.013177
     83 C26        -1.1430   -2.8090    0.8960 c         1 MOL      0.568762
     84 O13        -0.9630   -1.9600   -0.0050 o         1 MOL     -0.709960
     85 C27        -2.4540   -4.3420   -0.5010 c3        1 MOL      0.313936
     86 C28        -3.6610   -5.2070   -0.7620 ca        1 MOL     -0.227600
     87 C29        -4.8080   -4.6470   -1.2340 ca        1 MOL     -0.054333
     88 C30        -3.7110   -6.5540   -0.3470 ca        1 MOL     -0.054333
     89 C31        -6.0300   -5.3640   -1.2490 ca        1 MOL     -0.242460
     90 C32        -4.8370   -7.3400   -0.4300 ca        1 MOL     -0.242460
     91 C33        -6.0530   -6.7220   -0.8440 ca        1 MOL      0.298593
     92 O14        -7.2910   -7.3240   -0.6780 oh        1 MOL     -0.491086
     93 H37        -3.6410   -1.9170    0.5140 hn        1 MOL      0.477120
     94 H38        -2.3560   -4.5150    1.5400 h1        1 MOL      0.088431
     95 H39        -1.5680   -4.9400   -0.6770 hc        1 MOL     -0.043211
     96 H40        -2.4830   -3.6440   -1.3390 hc        1 MOL     -0.043211
     97 H41        -4.7620   -3.6150   -1.5540 ha        1 MOL      0.090946
     98 H42        -2.7850   -6.9720    0.0400 ha        1 MOL      0.090946
     99 H43        -6.9660   -4.9280   -1.5580 ha        1 MOL      0.135175
    100 H44        -4.8580   -8.3930   -0.1790 ha        1 MOL      0.135175
    101 H45        -7.2280   -8.2160   -0.3390 ho        1 MOL      0.377071
    102 N10        -0.2730   -3.1410    1.8110 n         1 MOL     -0.477126
    103 C34         1.0970   -2.6330    1.7470 c3        1 MOL      0.040964
    104 C35         2.0070   -3.4580    0.8810 c         1 MOL      0.436504
    105 O15         2.2430   -4.6390    1.2420 o         1 MOL     -0.545520
    106 C36         1.7210   -2.4090    3.1720 c3        1 MOL      0.189949
    107 C37         0.9680   -1.4830    4.1770 c3        1 MOL      0.103539
    108 C38         3.1780   -1.7360    3.1330 c3        1 MOL     -0.255668
    109 C39         1.1610   -1.7610    5.6620 c3        1 MOL     -0.266239
    110 H46        -0.3930   -3.8950    2.4810 hn        1 MOL      0.297538
    111 H47         1.0070   -1.6220    1.3500 h1        1 MOL      0.124704
    112 H48         1.8760   -3.3760    3.6400 hc        1 MOL     -0.018705
    113 H49        -0.0950   -1.6150    3.9710 hc        1 MOL     -0.021006
    114 H50         1.2570   -0.4730    3.8980 hc        1 MOL     -0.021006
    115 H51         3.5510   -1.7890    4.1540 hc        1 MOL      0.047341
    116 H52         3.8550   -2.3500    2.5290 hc        1 MOL      0.047341
    117 H53         3.0800   -0.7050    2.7910 hc        1 MOL      0.047341
    118 H54         1.0680   -2.8390    5.7670 hc        1 MOL      0.063536
    119 H55         2.1610   -1.4710    5.9940 hc        1 MOL      0.063536
    120 H56         0.5040   -1.2350    6.3610 hc        1 MOL      0.063536
    121 N11         2.4560   -2.8640   -0.2540 n         1 MOL     -0.054772
    122 C40         3.4100   -3.5980   -1.1630 c3        1 MOL     -0.356363
    123 C41         4.7790   -3.4660   -0.5940 c         1 MOL      0.445948
    124 O16         5.0950   -2.5200    0.1090 o         1 MOL     -0.269917
    125 C42         3.1910   -3.0390   -2.5270 c3        1 MOL      0.104697
    126 O17         3.4180   -1.6970   -2.6820 oh        1 MOL     -0.511471
    127 H57         2.2280   -1.9080   -0.4610 hn        1 MOL      0.133936
    128 H58         3.1540   -4.6450   -1.3090 h1        1 MOL      0.134854
    129 H59         2.1770   -3.0560   -2.9240 h1        1 MOL      0.048869
    130 H60         3.7340   -3.5930   -3.2960 h1        1 MOL      0.048869
    131 H61         2.6550   -1.3330   -2.2350 ho        1 MOL      0.335728
    132 N12         5.6870   -4.3370   -1.0110 n         1 MOL     -0.392328
    133 C43         7.1070   -4.1760   -0.8550 c3        1 MOL      0.071738
    134 C44         7.6770   -2.7240   -1.0970 c         1 MOL      0.495804
    135 O18         8.4090   -2.1130   -0.3380 o         1 MOL     -0.492628
    136 C45         7.8020   -5.3220   -1.6380 c3        1 MOL     -0.282453
    137 H62         5.4070   -4.9070   -1.7870 hn        1 MOL      0.293600
    138 H63         7.3600   -4.3270    0.1930 h1        1 MOL      0.082860
    139 H64         7.5840   -5.2690   -2.7000 hc        1 MOL      0.089367
    140 H65         8.8870   -5.2390   -1.5730 hc        1 MOL      0.089367
    141 H66         7.3890   -6.2770   -1.3240 hc        1 MOL      0.089367
    142 N13         7.2890   -2.1450   -2.2490 n         1 MOL     -0.430265
    143 C46         7.6090   -0.6990   -2.6180 c3        1 MOL      0.005421
    144 C47         7.1990    0.3430   -1.5410 c         1 MOL      0.381014
    145 O19         7.7020    1.4480   -1.4060 o         1 MOL     -0.519038
    146 C48         6.8820   -0.4690   -3.9870 c3        1 MOL     -0.175602
    147 H67         6.8230   -2.7190   -2.9340 hn        1 MOL      0.280665
    148 H68         8.6690   -0.5290   -2.8280 h1        1 MOL      0.112240
    149 H69         7.0110   -1.3620   -4.6070 hc        1 MOL      0.057338
    150 H70         5.7930   -0.4500   -3.9210 hc        1 MOL      0.057338
    151 H71         7.2840    0.2870   -4.6620 hc        1 MOL      0.057338
    152 N14         6.1730    0.0120   -0.7460 n         1 MOL     -0.017400
    153 C49         5.5890    0.9230    0.2440 c3        1 MOL     -0.141222
    154 C50         6.2050    0.6620    1.6550 c         1 MOL      0.451997
    155 O20         6.4000    1.5790    2.4650 o         1 MOL     -0.547556
    156 C51         4.1180    0.6570    0.3240 c3        1 MOL     -0.032213
    157 C52         3.3550    1.0410   -0.9360 c3        1 MOL     -0.075729
    158 C53         1.8850    0.5630   -0.7680 c         1 MOL      0.497470
    159 O21         1.5240   -0.5040   -1.2590 o         1 MOL     -0.650561
    160 O22         0.9520    1.3210   -0.3880 o         1 MOL     -0.650561
    161 H72         5.6080   -0.8090   -0.9350 hn        1 MOL      0.136448
    162 H73         5.7850    1.9620   -0.0100 h1        1 MOL      0.100850
    163 H74         3.5790    1.2420    1.0670 hc        1 MOL      0.095729
    164 H75         4.0110   -0.4120    0.5390 hc        1 MOL      0.095729
    165 H76         3.7960    0.6760   -1.8600 hc        1 MOL      0.020448
    166 H77         3.3870    2.1070   -1.1390 hc        1 MOL      0.020448
    167 N15         6.5140   -0.6160    1.9120 n         1 MOL     -0.070490
    168 C54         7.1990   -1.1260    3.1240 c3        1 MOL     -0.261706
    169 H78         7.1690   -0.3660    3.9050 h1        1 MOL      0.104308
    170 H79         6.6950   -2.0270    3.4750 h1        1 MOL      0.104308
    171 H80         8.2370   -1.3580    2.8850 h1        1 MOL      0.104308
    172 H81         6.3240   -1.2900    1.1920 hn        1 MOL      0.044442
    173 Ca1        -1.1720    0.1900   -1.5640 Ca        1 MOL      1.875621
    174 O23        -0.4450   -2.0690   -2.8960 oh        1 MOL     -0.840968
    175 H82        -0.2980   -2.9970   -2.7290 ho        1 MOL      0.410403
    176 H83        -0.1930   -1.9350   -3.8030 ho        1 MOL      0.410403
    177 O24         0.1410    2.1700   -3.1660 oh        1 MOL     -0.840968
    178 H84         0.8150    2.7770   -2.8680 ho        1 MOL      0.410403
    179 H85         0.1760    2.2320   -4.1250 ho        1 MOL      0.410403
    180 O25        -2.2080    0.2230   -4.0000 oh        1 MOL     -0.840968
    181 H86        -2.6620    1.0630   -3.9360 ho        1 MOL      0.410403
    182 H87        -2.6170   -0.2150   -4.7440 ho        1 MOL      0.410403
@<TRIPOS>BOND
     1    1    2 1   
     2    1    4 1   
     3    1    5 1   
     4    1    6 1   
     5    2    3 2   
     6    2    7 1   
     7    7    8 1   
     8    7   15 1   
     9    8    9 1   
    10    8   11 1   
    11    8   16 1   
    12    9   10 2   
    13    9   19 1   
    14   11   12 1   
    15   11   17 1   
    16   11   18 1   
    17   12   13 1   
    18   12   14 1   
    19   19   20 1   
    20   19   28 1   
    21   20   21 1   
    22   20   23 1   
    23   20   29 1   
    24   21   22 2   
    25   21   41 1   
    26   23   24 1   
    27   23   30 1   
    28   23   31 1   
    29   24   25 1   
    30   24   32 1   
    31   24   33 1   
    32   25   26 1   
    33   25   34 1   
    34   25   35 1   
    35   26   27 1   
    36   26   36 1   
    37   26   37 1   
    38   27   38 1   
    39   27   39 1   
    40   27   40 1   
    41   41   42 1   
    42   41   49 1   
    43   42   43 1   
    44   42   45 1   
    45   42   50 1   
    46   43   44 2   
    47   43   53 1   
    48   45   46 1   
    49   45   51 1   
    50   45   52 1   
    51   46   47 1   
    52   46   48 1   
    53   53   54 1   
    54   53   57 1   
    55   54   55 1   
    56   54   58 1   
    57   54   59 1   
    58   55   56 2   
    59   55   60 1   
    60   60   61 1   
    61   60   68 1   
    62   61   62 1   
    63   61   64 1   
    64   61   69 1   
    65   62   63 2   
    66   62   74 1   
    67   64   65 1   
    68   64   70 1   
    69   64   71 1   
    70   65   66 1   
    71   65   67 2   
    72   66   72 1   
    73   66   73 1   
    74   74   75 1   
    75   74   78 1   
    76   75   76 1   
    77   75   79 1   
    78   75   80 1   
    79   76   77 2   
    80   76   81 1   
    81   81   82 1   
    82   81   93 1   
    83   82   83 1   
    84   82   85 1   
    85   82   94 1   
    86   83   84 2   
    87   83  102 1   
    88   85   86 1   
    89   85   95 1   
    90   85   96 1   
    91   86   87 ar  
    92   86   88 ar  
    93   87   89 ar  
    94   87   97 1   
    95   88   90 ar  
    96   88   98 1   
    97   89   91 ar  
    98   89   99 1   
    99   90   91 ar  
   100   90  100 1   
   101   91   92 1   
   102   92  101 1   
   103  102  103 1   
   104  102  110 1   
   105  103  104 1   
   106  103  106 1   
   107  103  111 1   
   108  104  105 2   
   109  104  121 1   
   110  106  107 1   
   111  106  108 1   
   112  106  112 1   
   113  107  109 1   
   114  107  113 1   
   115  107  114 1   
   116  108  115 1   
   117  108  116 1   
   118  108  117 1   
   119  109  118 1   
   120  109  119 1   
   121  109  120 1   
   122  121  122 1   
   123  121  127 1   
   124  122  123 1   
   125  122  125 1   
   126  122  128 1   
   127  123  124 2   
   128  123  132 1   
   129  125  126 1   
   130  125  129 1   
   131  125  130 1   
   132  126  131 1   
   133  132  133 1   
   134  132  137 1   
   135  133  134 1   
   136  133  136 1   
   137  133  138 1   
   138  134  135 2   
   139  134  142 1   
   140  136  139 1   
   141  136  140 1   
   142  136  141 1   
   143  142  143 1   
   144  142  147 1   
   145  143  144 1   
   146  143  146 1   
   147  143  148 1   
   148  144  145 2   
   149  144  152 1   
   150  146  149 1   
   151  146  150 1   
   152  146  151 1   
   153  152  153 1   
   154  152  161 1   
   155  153  154 1   
   156  153  156 1   
   157  153  162 1   
   158  154  155 2   
   159  154  167 1   
   160  156  157 1   
   161  156  163 1   
   162  156  164 1   
   163  157  158 1   
   164  157  165 1   
   165  157  166 1   
   166  158  159 1   
   167  158  160 1   
   168  167  168 1   
   169  167  172 1   
   170  168  169 1   
   171  168  170 1   
   172  168  171 1   
   173  174  175 1   
   174  174  176 1   
   175  177  178 1   
   176  177  179 1   
   177  180  181 1   
   178  180  182 1   
@<TRIPOS>SUBSTRUCTURE
     1 MOL         1 TEMP              0 ****  ****    0 ROOT
