@<TRIPOS>MOLECULE
MOL
  172   171     1     0     0
SMALL
resp


@<TRIPOS>ATOM
      1 C1         -0.4430    4.0020    5.6670 c3        1 MOL     -0.353428
      2 C2         -0.7270    3.5680    4.2630 c         1 MOL      0.794650
      3 O1         -0.0030    3.9210    3.3340 o         1 MOL     -0.610601
      4 H1         -1.3390    3.8720    6.2750 hc        1 MOL      0.083852
      5 H2          0.3650    3.3980    6.0790 hc        1 MOL      0.083852
      6 H3         -0.1510    5.0520    5.6710 hc        1 MOL      0.083852
      7 N1         -1.8260    2.8050    3.9990 n         1 MOL     -0.689812
      8 C3         -2.2210    2.3150    2.6650 c3        1 MOL      0.560111
      9 C4         -2.8320    3.5350    1.9000 c         1 MOL      0.404066
     10 O2         -3.7640    4.1800    2.4080 o         1 MOL     -0.579621
     11 C5         -3.2320    1.0970    2.7510 c3        1 MOL     -0.537136
     12 C6         -3.8850    0.8640    1.4100 c         1 MOL      0.927133
     13 O3         -5.0040    0.1990    1.3900 o         1 MOL     -0.730576
     14 O4         -3.1710    1.0910    0.4120 o         1 MOL     -0.730576
     15 H4         -2.5540    2.6790    4.6820 hn        1 MOL      0.305541
     16 H5         -1.3590    1.9880    2.0970 h1        1 MOL     -0.087516
     17 H6         -3.9540    1.4840    3.4700 hc        1 MOL      0.090922
     18 H7         -2.5810    0.2620    3.0010 hc        1 MOL      0.090922
     19 N2         -2.1780    3.9340    0.7840 n         1 MOL     -0.285235
     20 C7         -2.2830    5.2620    0.1600 c3        1 MOL      0.015063
     21 C8         -3.1630    5.2530   -1.1150 c         1 MOL      0.419076
     22 O5         -3.5430    6.3100   -1.6640 o         1 MOL     -0.541227
     23 C9         -0.8010    5.7440   -0.0170 c3        1 MOL     -0.122362
     24 H8         -1.5610    3.2060    0.4510 hn        1 MOL      0.224056
     25 H9         -2.7190    5.9250    0.9190 h1        1 MOL      0.090182
     26 H10        -0.8100    6.7490   -0.4290 hc        1 MOL      0.038958
     27 H11        -0.2080    5.7900    0.9060 hc        1 MOL      0.038958
     28 H12        -0.3830    5.0580   -0.7580 hc        1 MOL      0.038958
     29 N3         -3.5380    4.0060   -1.5390 n         1 MOL     -0.182046
     30 C10        -4.5770    3.8590   -2.4950 c3        1 MOL      0.126901
     31 C11        -5.9080    3.4280   -1.8870 c         1 MOL      0.455662
     32 O6         -6.9500    3.9170   -2.2740 o         1 MOL     -0.562148
     33 C12        -4.1510    2.8350   -3.6200 c3        1 MOL     -0.288520
     34 C13        -3.6350    1.4280   -3.0960 c         1 MOL      0.848677
     35 O7         -2.4910    1.1120   -3.4240 o         1 MOL     -0.760585
     36 O8         -4.3460    0.6190   -2.4540 o         1 MOL     -0.760585
     37 H13        -3.0200    3.2440   -1.1370 hn        1 MOL      0.152646
     38 H14        -4.7470    4.8520   -2.9310 h1        1 MOL      0.049740
     39 H15        -3.4150    3.3430   -4.2340 hc        1 MOL      0.066672
     40 H16        -5.0570    2.5760   -4.1630 hc        1 MOL      0.066672
     41 N4         -6.0060    2.5050   -0.8660 n         1 MOL     -0.196466
     42 C14        -7.2100    1.9020   -0.2820 c3        1 MOL     -0.060607
     43 C15        -7.4640    0.3880   -0.2150 c         1 MOL      0.606558
     44 O9         -8.4850   -0.0610    0.2990 o         1 MOL     -0.638894
     45 H17        -5.1650    2.0020   -0.6050 hn        1 MOL      0.014265
     46 H18        -8.0900    2.2430   -0.8260 h1        1 MOL      0.050617
     47 H19        -7.3060    2.1670    0.7780 h1        1 MOL      0.050617
     48 N5         -6.7170   -0.2940   -1.0380 n         1 MOL     -0.347100
     49 C16        -7.0830   -1.6750   -1.3390 c3        1 MOL      0.031656
     50 C17        -6.8240   -2.7400   -0.2260 c         1 MOL      0.414450
     51 O10        -6.9840   -3.9560   -0.5650 o         1 MOL     -0.558044
     52 C18        -6.4470   -1.9740   -2.6720 c3        1 MOL     -0.314429
     53 C19        -4.9440   -2.3500   -2.4340 c         1 MOL      0.620083
     54 N6         -4.2990   -2.8280   -3.4210 n         1 MOL     -0.646321
     55 O11        -4.3360   -2.0880   -1.3870 o         1 MOL     -0.594071
     56 H20        -5.8210    0.0520   -1.3540 hn        1 MOL      0.297333
     57 H21        -8.1570   -1.7380   -1.5210 h1        1 MOL      0.105081
     58 H22        -6.5270   -1.0870   -3.3060 hc        1 MOL      0.098427
     59 H23        -6.9850   -2.8220   -3.0810 hc        1 MOL      0.098427
     60 H24        -4.7680   -3.1180   -4.2660 hn        1 MOL      0.317539
     61 H25        -3.3490   -3.1190   -3.2660 hn        1 MOL      0.317539
     62 N7         -6.3760   -2.4380    1.0090 n         1 MOL     -0.221523
     63 C20        -6.1870   -3.4210    2.1130 c3        1 MOL     -0.152459
     64 C21        -4.8810   -4.2300    1.9510 c         1 MOL      0.537432
     65 O12        -4.7410   -5.2080    2.6580 o         1 MOL     -0.597325
     66 H26        -6.1530   -1.4750    1.1940 hn        1 MOL      0.272534
     67 H27        -7.0390   -4.0830    2.2610 h1        1 MOL      0.096729
     68 H28        -6.0670   -2.8350    3.0250 h1        1 MOL      0.096729
     69 N8         -3.9380   -3.8540    1.1730 n         1 MOL     -0.188343
     70 C22        -2.5240   -4.3520    1.3050 c3        1 MOL     -0.415770
     71 C23        -1.5980   -3.1590    1.1310 c         1 MOL      1.070625
     72 O13        -1.8100   -2.2960    0.3430 o         1 MOL     -0.751873
     73 C24        -2.1210   -5.4340    0.3240 c3        1 MOL      0.361030
     74 C25        -2.7340   -6.8550    0.6520 c3        1 MOL     -0.591462
     75 O14        -2.5980   -5.1530   -0.9240 oh        1 MOL     -0.622978
     76 H29        -4.0640   -2.9010    0.8660 hn        1 MOL      0.214461
     77 H30        -2.3420   -4.7420    2.3040 h1        1 MOL      0.164144
     78 H31        -1.0250   -5.3870    0.3230 h1        1 MOL      0.058760
     79 H32        -3.4700   -5.5530   -0.9680 ho        1 MOL      0.433118
     80 H33        -3.7870   -6.7910    0.9070 hc        1 MOL      0.159980
     81 H34        -2.6350   -7.4790   -0.2380 hc        1 MOL      0.159980
     82 H35        -2.3040   -7.2370    1.5790 hc        1 MOL      0.159980
     83 N9         -0.5990   -3.1140    1.9800 n         1 MOL     -0.850462
     84 C26         0.5540   -2.1270    1.9150 c3        1 MOL      0.171457
     85 C27         1.6320   -2.5630    0.9060 c         1 MOL      0.599422
     86 O15         2.1440   -3.6630    1.0930 o         1 MOL     -0.601644
     87 C28         1.2170   -2.0040    3.3290 c3        1 MOL      0.237080
     88 C29         0.1500   -1.7270    4.4930 c3        1 MOL      0.077869
     89 C30         2.2480   -0.8380    3.3410 c3        1 MOL     -0.242305
     90 C31         0.8240   -1.7180    5.8870 c3        1 MOL     -0.305400
     91 H36        -0.7040   -3.6760    2.8160 hn        1 MOL      0.321698
     92 H37         0.1710   -1.1810    1.5130 h1        1 MOL      0.049702
     93 H38         1.7690   -2.9050    3.6120 hc        1 MOL     -0.039657
     94 H39        -0.6230   -2.4960    4.4250 hc        1 MOL     -0.009932
     95 H40        -0.2990   -0.7460    4.3180 hc        1 MOL     -0.009932
     96 H41         1.7650    0.1120    3.1110 hc        1 MOL      0.040589
     97 H42         2.8280   -0.7910    4.2610 hc        1 MOL      0.040589
     98 H43         2.9480   -1.0340    2.5310 hc        1 MOL      0.040589
     99 H44         0.0520   -1.6940    6.6580 hc        1 MOL      0.071954
    100 H45         1.4160   -2.6370    5.9730 hc        1 MOL      0.071954
    101 H46         1.4480   -0.8350    6.0300 hc        1 MOL      0.071954
    102 N10         1.9770   -1.6690   -0.0470 n         1 MOL     -0.288720
    103 C32         3.0310   -1.9450   -1.0900 c3        1 MOL      0.024125
    104 C33         4.4390   -1.4660   -0.6430 c         1 MOL      0.452276
    105 O16         4.6140   -0.6020    0.2290 o         1 MOL     -0.332566
    106 C34         2.5510   -1.2790   -2.4180 c3        1 MOL     -0.390484
    107 C35         1.1480   -1.6030   -2.7650 c         1 MOL      0.810065
    108 O17         0.2650   -0.6940   -2.7860 o         1 MOL     -0.696115
    109 O18         0.8330   -2.8090   -2.9960 o         1 MOL     -0.696115
    110 H47         1.5420   -0.7730    0.0490 hn        1 MOL      0.023725
    111 H48         3.1290   -3.0060   -1.3050 h1        1 MOL      0.091352
    112 H49         3.2460   -1.6020   -3.1910 hc        1 MOL      0.109786
    113 H50         2.7710   -0.2180   -2.3040 hc        1 MOL      0.109786
    114 N11         5.4600   -1.8320   -1.3980 n         1 MOL     -0.605410
    115 C36         6.8030   -1.4220   -0.9470 c3        1 MOL      0.252796
    116 C37         7.1450    0.1330   -0.8930 c         1 MOL      0.401208
    117 O19         7.7080    0.5430    0.1180 o         1 MOL     -0.482928
    118 C38         7.8760   -2.2200   -1.6970 c3        1 MOL     -0.134730
    119 C39         9.3050   -2.2420   -1.1000 ca        1 MOL      0.047187
    120 C40         9.4960   -2.3760    0.3130 ca        1 MOL     -0.183792
    121 C41        10.3090   -1.8960   -1.9930 ca        1 MOL     -0.183792
    122 C42        10.8290   -2.4200    0.7030 ca        1 MOL     -0.047123
    123 C43        11.6170   -1.7740   -1.4500 ca        1 MOL     -0.047123
    124 C44        11.9110   -2.0770   -0.0890 ca        1 MOL     -0.167910
    125 H51         5.4060   -2.5600   -2.0940 hn        1 MOL      0.354358
    126 H52         6.9740   -1.7650    0.0750 h1        1 MOL      0.078590
    127 H53         7.9510   -1.8810   -2.7310 hc        1 MOL      0.039544
    128 H54         7.4650   -3.2270   -1.8250 hc        1 MOL      0.039544
    129 H55         8.7310   -2.5870    1.0480 ha        1 MOL      0.134873
    130 H56        10.0290   -1.6200   -3.0020 ha        1 MOL      0.134873
    131 H57        11.0380   -2.7530    1.7120 ha        1 MOL      0.081333
    132 H58        12.4450   -1.4930   -2.0940 ha        1 MOL      0.081333
    133 H59        12.9090   -2.0470    0.3310 ha        1 MOL      0.120785
    134 N12         6.6630    1.0370   -1.7840 n         1 MOL     -0.185729
    135 C45         6.8210    2.4320   -1.6060 c3        1 MOL      0.013510
    136 C46         5.9210    3.0120   -0.4670 c         1 MOL      0.393480
    137 O20         6.2510    4.0660    0.0670 o         1 MOL     -0.510057
    138 C47         6.5320    2.9920   -3.0080 c3        1 MOL     -0.181449
    139 C48         5.4830    2.0630   -3.5740 c3        1 MOL      0.037923
    140 C49         5.9140    0.7000   -2.9690 c3        1 MOL      0.050682
    141 H60         7.8320    2.6410   -1.2690 h1        1 MOL      0.075317
    142 H61         6.1760    4.0210   -2.9620 hc        1 MOL      0.070370
    143 H62         7.4350    2.9190   -3.6160 hc        1 MOL      0.070370
    144 H63         4.4560    2.3090   -3.3070 hc        1 MOL      0.021941
    145 H64         5.5840    2.0250   -4.6660 hc        1 MOL      0.021941
    146 H65         4.9880    0.1390   -2.8100 h1        1 MOL      0.008929
    147 H66         6.4480    0.1670   -3.7620 h1        1 MOL      0.008929
    148 N13         4.7640    2.4330   -0.1670 n         1 MOL     -0.084931
    149 C50         3.9470    2.6460    0.9640 c3        1 MOL     -0.219106
    150 C51         4.6720    2.2550    2.2770 c         1 MOL      0.404462
    151 O21         4.7690    3.0030    3.2780 o         1 MOL     -0.542296
    152 C52         2.5470    1.9210    0.7400 c3        1 MOL      0.095189
    153 C53         1.8140    2.2770   -0.5230 c3        1 MOL     -0.053053
    154 C54         0.3680    1.7370   -0.6050 c         1 MOL      0.596238
    155 O22         0.0880    0.6500   -0.0430 o         1 MOL     -0.638399
    156 O23        -0.5480    2.2610   -1.2810 o         1 MOL     -0.638399
    157 H67         4.4990    1.7160   -0.8400 hn        1 MOL      0.130534
    158 H68         3.6710    3.6950    1.0450 h1        1 MOL      0.128749
    159 H69         1.9850    2.2250    1.6190 hc        1 MOL      0.053623
    160 H70         2.6500    0.8430    0.6280 hc        1 MOL      0.053623
    161 H71         2.3780    1.9880   -1.4160 hc        1 MOL      0.005788
    162 H72         1.7810    3.3630   -0.4830 hc        1 MOL      0.005788
    163 N14         5.2780    1.0560    2.2910 n         1 MOL      0.018897
    164 C55         6.0640    0.5760    3.4060 c3        1 MOL     -0.211859
    165 H73         7.0920    0.4130    3.0820 h1        1 MOL      0.073070
    166 H74         6.0490    1.3150    4.2070 h1        1 MOL      0.073070
    167 H75         5.6460   -0.3630    3.7690 h1        1 MOL      0.073070
    168 H76         5.1730    0.4310    1.5040 hn        1 MOL      0.044746
    169 Ca1        -1.9900   -0.3210   -1.3700 Ca        1 MOL      1.747988
    170 O24        -1.6270   -2.9880   -2.4980 oh        1 MOL     -0.874358
    171 H77        -1.8350   -3.6740   -1.8650 ho        1 MOL      0.424789
    172 H78        -0.6770   -3.0050   -2.5640 ho        1 MOL      0.424789
@<TRIPOS>BOND
     1    1    2 1   
     2    1    4 1   
     3    1    5 1   
     4    1    6 1   
     5    2    3 2   
     6    2    7 1   
     7    7    8 1   
     8    7   15 1   
     9    8    9 1   
    10    8   11 1   
    11    8   16 1   
    12    9   10 2   
    13    9   19 1   
    14   11   12 1   
    15   11   17 1   
    16   11   18 1   
    17   12   13 1   
    18   12   14 1   
    19   19   20 1   
    20   19   24 1   
    21   20   21 1   
    22   20   23 1   
    23   20   25 1   
    24   21   22 2   
    25   21   29 1   
    26   23   26 1   
    27   23   27 1   
    28   23   28 1   
    29   29   30 1   
    30   29   37 1   
    31   30   31 1   
    32   30   33 1   
    33   30   38 1   
    34   31   32 2   
    35   31   41 1   
    36   33   34 1   
    37   33   39 1   
    38   33   40 1   
    39   34   35 1   
    40   34   36 1   
    41   41   42 1   
    42   41   45 1   
    43   42   43 1   
    44   42   46 1   
    45   42   47 1   
    46   43   44 2   
    47   43   48 1   
    48   48   49 1   
    49   48   56 1   
    50   49   50 1   
    51   49   52 1   
    52   49   57 1   
    53   50   51 2   
    54   50   62 1   
    55   52   53 1   
    56   52   58 1   
    57   52   59 1   
    58   53   54 1   
    59   53   55 2   
    60   54   60 1   
    61   54   61 1   
    62   62   63 1   
    63   62   66 1   
    64   63   64 1   
    65   63   67 1   
    66   63   68 1   
    67   64   65 2   
    68   64   69 1   
    69   69   70 1   
    70   69   76 1   
    71   70   71 1   
    72   70   73 1   
    73   70   77 1   
    74   71   72 2   
    75   71   83 1   
    76   73   74 1   
    77   73   75 1   
    78   73   78 1   
    79   74   80 1   
    80   74   81 1   
    81   74   82 1   
    82   75   79 1   
    83   83   84 1   
    84   83   91 1   
    85   84   85 1   
    86   84   87 1   
    87   84   92 1   
    88   85   86 2   
    89   85  102 1   
    90   87   88 1   
    91   87   89 1   
    92   87   93 1   
    93   88   90 1   
    94   88   94 1   
    95   88   95 1   
    96   89   96 1   
    97   89   97 1   
    98   89   98 1   
    99   90   99 1   
   100   90  100 1   
   101   90  101 1   
   102  102  103 1   
   103  102  110 1   
   104  103  104 1   
   105  103  106 1   
   106  103  111 1   
   107  104  105 2   
   108  104  114 1   
   109  106  107 1   
   110  106  112 1   
   111  106  113 1   
   112  107  108 1   
   113  107  109 1   
   114  114  115 1   
   115  114  125 1   
   116  115  116 1   
   117  115  118 1   
   118  115  126 1   
   119  116  117 2   
   120  116  134 1   
   121  118  119 1   
   122  118  127 1   
   123  118  128 1   
   124  119  120 ar  
   125  119  121 ar  
   126  120  122 ar  
   127  120  129 1   
   128  121  123 ar  
   129  121  130 1   
   130  122  124 ar  
   131  122  131 1   
   132  123  124 ar  
   133  123  132 1   
   134  124  133 1   
   135  134  135 1   
   136  134  140 1   
   137  135  136 1   
   138  135  138 1   
   139  135  141 1   
   140  136  137 2   
   141  136  148 1   
   142  138  139 1   
   143  138  142 1   
   144  138  143 1   
   145  139  140 1   
   146  139  144 1   
   147  139  145 1   
   148  140  146 1   
   149  140  147 1   
   150  148  149 1   
   151  148  157 1   
   152  149  150 1   
   153  149  152 1   
   154  149  158 1   
   155  150  151 2   
   156  150  163 1   
   157  152  153 1   
   158  152  159 1   
   159  152  160 1   
   160  153  154 1   
   161  153  161 1   
   162  153  162 1   
   163  154  155 1   
   164  154  156 1   
   165  163  164 1   
   166  163  168 1   
   167  164  165 1   
   168  164  166 1   
   169  164  167 1   
   170  170  171 1   
   171  170  172 1   
@<TRIPOS>SUBSTRUCTURE
     1 MOL         1 TEMP              0 ****  ****    0 ROOT
