@<TRIPOS>MOLECULE
MOL
  179   176     1     0     0
SMALL
resp


@<TRIPOS>ATOM
      1 C1         -2.7770   -2.3250    5.0760 c3        1 MOL     -0.452638
      2 C2         -2.0550   -1.8170    3.8290 c         1 MOL      0.746732
      3 O1         -2.6400   -1.4290    2.7970 o         1 MOL     -0.611962
      4 H1         -3.6900   -1.7490    5.2260 hc        1 MOL      0.113954
      5 H2         -3.0280   -3.3780    4.9480 hc        1 MOL      0.113954
      6 H3         -2.1290   -2.2080    5.9450 hc        1 MOL      0.113954
      7 N1         -0.7050   -1.9660    3.8560 n         1 MOL     -0.545453
      8 C3          0.0750   -1.9810    2.6060 c3        1 MOL      0.179647
      9 C4         -0.0190   -3.3060    1.9450 c         1 MOL      0.396048
     10 O2          0.2550   -4.2880    2.6830 o         1 MOL     -0.611993
     11 C5          1.5280   -1.6070    2.9750 c3        1 MOL     -0.041332
     12 C6          2.4790   -1.6080    1.7300 c         1 MOL      0.727821
     13 O3          3.7170   -1.5890    1.8510 o         1 MOL     -0.701212
     14 O4          1.9050   -1.5980    0.6030 o         1 MOL     -0.701212
     15 H4         -0.3130   -2.2620    4.7450 hn        1 MOL      0.312974
     16 H5         -0.2530   -1.2490    1.8720 h1        1 MOL     -0.016386
     17 H6          1.9000   -2.3140    3.7080 hc        1 MOL      0.014019
     18 H7          1.5850   -0.6610    3.5210 hc        1 MOL      0.014019
     19 N2         -0.5430   -3.5220    0.7700 n         1 MOL     -0.035001
     20 C7         -0.9550   -4.8420    0.2330 c3        1 MOL      0.012938
     21 C8          0.0200   -5.4810   -0.7630 c         1 MOL      0.526681
     22 O5         -0.1080   -6.6950   -0.8450 o         1 MOL     -0.570686
     23 C9         -2.2810   -4.6430   -0.4440 c3        1 MOL     -0.119674
     24 C10        -3.3950   -4.0070    0.4190 c3        1 MOL      0.053544
     25 C11        -3.6520   -4.9570    1.6220 c3        1 MOL     -0.290577
     26 C12        -5.0400   -4.7790    2.2410 c3        1 MOL      0.184314
     27 N3         -5.3600   -5.9680    3.0710 n4        1 MOL     -0.406519
     28 H8         -0.6070   -2.6890    0.2130 hn        1 MOL      0.063257
     29 H9         -1.1020   -5.6050    1.0040 h1        1 MOL      0.064355
     30 H10        -2.6850   -5.6440   -0.5800 hc        1 MOL      0.039859
     31 H11        -2.1630   -4.0480   -1.3390 hc        1 MOL      0.039859
     32 H12        -4.2600   -3.8770   -0.2350 hc        1 MOL      0.063748
     33 H13        -2.9840   -3.0760    0.8160 hc        1 MOL      0.063748
     34 H14        -2.9120   -4.7160    2.3870 hc        1 MOL      0.094030
     35 H15        -3.5900   -5.9890    1.2640 hc        1 MOL      0.094030
     36 H16        -5.8420   -4.7290    1.5000 hx        1 MOL      0.067572
     37 H17        -4.9580   -3.8110    2.7450 hx        1 MOL      0.067572
     38 H18        -5.4700   -6.8370    2.5630 hn        1 MOL      0.327209
     39 H19        -4.7170   -6.0640    3.8460 hn        1 MOL      0.327209
     40 H20        -6.2400   -5.8810    3.5670 hn        1 MOL      0.327209
     41 N4          1.0580   -4.8360   -1.2330 n         1 MOL     -0.416212
     42 C13         2.1120   -5.3540   -2.0830 c3        1 MOL      0.159744
     43 C14         3.4660   -5.2330   -1.3480 c         1 MOL      0.324541
     44 O6          4.4970   -5.6480   -1.9200 o         1 MOL     -0.524698
     45 C15         2.1910   -4.6710   -3.4580 c3        1 MOL     -0.249096
     46 C16         2.4220   -3.1180   -3.4450 c         1 MOL      0.761386
     47 O7          2.3860   -2.5480   -4.5690 o         1 MOL     -0.697290
     48 O8          2.4360   -2.3880   -2.3850 o         1 MOL     -0.697290
     49 H21         1.2270   -3.8590   -1.0200 hn        1 MOL      0.209460
     50 H22         2.0980   -6.4230   -2.2890 h1        1 MOL      0.091340
     51 H23         1.2870   -4.8310   -4.0520 hc        1 MOL      0.077128
     52 H24         2.9520   -5.2710   -3.9600 hc        1 MOL      0.077128
     53 N5          3.6440   -4.6010   -0.1970 n         1 MOL     -0.065023
     54 C17         4.7770   -4.3980    0.6120 c3        1 MOL     -0.425275
     55 C18         5.7930   -3.3800    0.1250 c         1 MOL      0.564188
     56 O9          6.9210   -3.3850    0.6380 o         1 MOL     -0.578500
     57 H25         2.7910   -4.2730    0.2300 hn        1 MOL      0.170208
     58 H26         5.2750   -5.3620    0.5500 h1        1 MOL      0.171792
     59 H27         4.5450   -4.0700    1.6260 h1        1 MOL      0.171792
     60 N6          5.4460   -2.5550   -0.7880 n         1 MOL     -0.107471
     61 C19         6.3360   -1.5940   -1.3790 c3        1 MOL     -0.192963
     62 C20         6.8430   -0.5660   -0.4110 c         1 MOL      0.492865
     63 O10         7.8610    0.0640   -0.6890 o         1 MOL     -0.543187
     64 C21         5.6210   -0.8950   -2.6540 c3        1 MOL      0.052812
     65 C22         4.5740    0.1890   -2.4100 c         1 MOL      0.304736
     66 N7          4.4200    1.0840   -3.3670 n         1 MOL     -0.787926
     67 O11         4.0050    0.2970   -1.3010 o         1 MOL     -0.164894
     68 H28         4.4840   -2.5430   -1.0730 hn        1 MOL      0.085860
     69 H29         7.1890   -2.1260   -1.7960 h1        1 MOL      0.123512
     70 H30         5.1310   -1.6780   -3.2340 hc        1 MOL      0.044717
     71 H31         6.4340   -0.5690   -3.3070 hc        1 MOL      0.044717
     72 H32         5.1830    1.0640   -4.0260 hn        1 MOL      0.387960
     73 H33         3.8760    1.9190   -3.2030 hn        1 MOL      0.387960
     74 N8          6.0450   -0.3230    0.6860 n         1 MOL     -0.204819
     75 C23         6.4050    0.5860    1.7650 c3        1 MOL     -0.283086
     76 C24         5.3680    1.6760    2.1220 c         1 MOL      0.617583
     77 O12         5.5660    2.4360    3.0540 o         1 MOL     -0.575315
     78 H34         5.1830   -0.8360    0.7820 hn        1 MOL      0.331282
     79 H35         7.3430    1.1020    1.5480 h1        1 MOL      0.135080
     80 H36         6.5450    0.0260    2.6840 h1        1 MOL      0.135080
     81 N9          4.3240    1.8050    1.3020 n         1 MOL     -0.138567
     82 C25         3.3340    2.8840    1.2800 c3        1 MOL     -0.117505
     83 C26         1.8880    2.4010    1.0970 c         1 MOL      0.941225
     84 O13         1.5810    1.5120    0.3630 o         1 MOL     -0.704126
     85 C27         3.7610    3.8290    0.2430 c3        1 MOL     -0.035168
     86 C28         4.9750    4.7270    0.3360 ca        1 MOL      0.006244
     87 C29         5.9160    4.5550   -0.7000 ca        1 MOL     -0.059030
     88 C30         5.0390    5.8050    1.2680 ca        1 MOL     -0.059030
     89 C31         6.9530    5.5540   -0.8510 ca        1 MOL     -0.400834
     90 C32         6.0940    6.7200    1.1080 ca        1 MOL     -0.400834
     91 C33         7.0520    6.6030    0.1030 ca        1 MOL      0.486788
     92 O14         8.0380    7.5180   -0.0160 oh        1 MOL     -0.487296
     93 H37         4.1320    0.9920    0.7400 hn        1 MOL     -0.166055
     94 H38         3.4190    3.5030    2.1790 h1        1 MOL      0.050579
     95 H39         2.9080    4.4840    0.0480 hc        1 MOL      0.000962
     96 H40         3.8930    3.1810   -0.6170 hc        1 MOL      0.000962
     97 H41         5.9540    3.6790   -1.3310 ha        1 MOL      0.129352
     98 H42         4.2190    5.9850    1.9470 ha        1 MOL      0.129352
     99 H43         7.6930    5.3380   -1.6040 ha        1 MOL      0.180566
    100 H44         6.1340    7.5800    1.7550 ha        1 MOL      0.180566
    101 H45         7.7450    8.3140    0.4450 ho        1 MOL      0.337498
    102 N10         0.9670    3.0310    1.8940 n         1 MOL     -0.765683
    103 C34        -0.4580    2.7270    1.8310 c3        1 MOL      0.024184
    104 C35        -1.0800    3.6230    0.7210 c         1 MOL      0.625771
    105 O15        -0.7160    4.8200    0.6740 o         1 MOL     -0.574689
    106 C36        -1.0310    2.9520    3.3100 c3        1 MOL      0.021235
    107 C37        -0.3910    2.0650    4.4310 c3        1 MOL      0.257774
    108 C38        -2.5600    2.8740    3.3100 c3        1 MOL     -0.113511
    109 C39        -1.0150    2.2190    5.8360 c3        1 MOL     -0.161862
    110 H46         1.3760    3.6990    2.5340 hn        1 MOL      0.385325
    111 H47        -0.6210    1.6930    1.5120 h1        1 MOL      0.109643
    112 H48        -0.7490    3.9760    3.5580 hc        1 MOL      0.029823
    113 H49         0.6520    2.3950    4.4410 hc        1 MOL     -0.072882
    114 H50        -0.4710    0.9990    4.1990 hc        1 MOL     -0.072882
    115 H51        -3.0280    3.4660    2.5300 hc        1 MOL      0.020985
    116 H52        -2.9240    1.8620    3.1130 hc        1 MOL      0.020985
    117 H53        -2.9980    3.3050    4.2130 hc        1 MOL      0.020985
    118 H54        -1.1560    3.2380    6.1750 hc        1 MOL      0.033784
    119 H55        -1.9940    1.7430    5.8790 hc        1 MOL      0.033784
    120 H56        -0.3830    1.6440    6.5230 hc        1 MOL      0.033784
    121 N11        -1.9930    3.1440   -0.1260 n         1 MOL     -0.283121
    122 C40        -2.9410    3.9040   -1.0280 c3        1 MOL     -0.018017
    123 C41        -4.4010    3.6440   -0.7220 c         1 MOL      0.588068
    124 O16        -4.7340    2.6850    0.0230 o         1 MOL     -0.474082
    125 C42        -2.5400    3.8020   -2.4720 c3        1 MOL      0.079214
    126 O17        -2.3960    2.4510   -2.9390 oh        1 MOL     -0.589684
    127 H57        -2.1880    2.1520   -0.0900 hn        1 MOL      0.180913
    128 H58        -2.8930    4.9780   -0.8060 h1        1 MOL      0.042179
    129 H59        -1.6150    4.3360   -2.7120 h1        1 MOL      0.052250
    130 H60        -3.3090    4.2680   -3.0920 h1        1 MOL      0.052250
    131 H61        -1.7580    1.9530   -2.4220 ho        1 MOL      0.385178
    132 N12        -5.3630    4.5330   -1.1310 n         1 MOL     -0.510573
    133 C43        -6.7880    4.4400   -0.7370 c3        1 MOL      0.109799
    134 C44        -7.4440    3.1900   -1.2550 c         1 MOL      0.418958
    135 O18        -8.2460    2.5340   -0.5730 o         1 MOL     -0.528137
    136 C45        -7.5230    5.7470   -1.1680 c3        1 MOL     -0.265142
    137 H62        -5.1850    5.2890   -1.7670 hn        1 MOL      0.295012
    138 H63        -6.9140    4.3650    0.3380 h1        1 MOL      0.092016
    139 H64        -7.1180    6.6480   -0.7150 hc        1 MOL      0.092825
    140 H65        -7.5980    5.8280   -2.2520 hc        1 MOL      0.092825
    141 H66        -8.5300    5.7290   -0.7520 hc        1 MOL      0.092825
    142 N13        -7.0890    2.6530   -2.3970 n         1 MOL     -0.312041
    143 C46        -7.6810    1.3510   -2.8440 c3        1 MOL      0.052799
    144 C47        -7.1550    0.1190   -2.1400 c         1 MOL      0.379809
    145 O19        -7.8130   -0.9380   -2.1530 o         1 MOL     -0.500084
    146 C48        -7.3930    1.1730   -4.3480 c3        1 MOL     -0.223243
    147 H67        -6.4610    3.0650   -3.0850 hn        1 MOL      0.251006
    148 H68        -8.7490    1.4500   -2.6530 h1        1 MOL      0.114231
    149 H69        -7.8420    2.0380   -4.8410 hc        1 MOL      0.068988
    150 H70        -6.3000    1.2420   -4.3570 hc        1 MOL      0.068988
    151 H71        -7.8200    0.2890   -4.8320 hc        1 MOL      0.068988
    152 N14        -5.9560    0.2530   -1.5390 n         1 MOL     -0.029548
    153 C49        -5.5100   -0.7510   -0.6320 c3        1 MOL     -0.635879
    154 C50        -6.2580   -0.7690    0.7070 c         1 MOL      0.801499
    155 O20        -6.5420   -1.8000    1.2930 o         1 MOL     -0.660493
    156 C51        -4.0040   -0.6370   -0.4520 c3        1 MOL      0.330235
    157 C52        -3.0910   -0.7630   -1.7200 c3        1 MOL      0.034186
    158 C53        -1.6330   -0.5690   -1.4560 c         1 MOL      0.846701
    159 O21        -1.1360    0.5260   -1.5740 o         1 MOL     -0.751391
    160 O22        -0.8650   -1.4840   -1.1070 o         1 MOL     -0.751391
    161 H72        -5.4580    1.1310   -1.5630 hn        1 MOL      0.172216
    162 H73        -5.6260   -1.6880   -1.1810 h1        1 MOL      0.197712
    163 H74        -3.7070   -1.3660    0.3030 hc        1 MOL     -0.086991
    164 H75        -3.8030    0.3570   -0.0480 hc        1 MOL     -0.086991
    165 H76        -3.3620    0.0100   -2.4390 hc        1 MOL     -0.058682
    166 H77        -3.2180   -1.7890   -2.0680 hc        1 MOL     -0.058682
    167 N15        -6.4690    0.4020    1.2580 n         1 MOL     -0.244153
    168 C54        -7.3510    0.6320    2.3950 c3        1 MOL     -0.157664
    169 H78        -8.0850    1.3960    2.1360 h1        1 MOL      0.080160
    170 H79        -7.8660   -0.2940    2.6490 h1        1 MOL      0.080160
    171 H80        -6.7630    0.9680    3.2500 h1        1 MOL      0.080160
    172 H81        -5.8940    1.1860    0.9900 hn        1 MOL      0.220354
    173 Ca1         1.4080   -0.2690   -1.4430 Ca        1 MOL      1.681573
    174 O23         0.7220   -0.3780   -3.9600 oh        1 MOL     -0.883131
    175 H82         0.7600   -1.1150   -4.5740 ho        1 MOL      0.425133
    176 H83         0.7510    0.3930   -4.5260 ho        1 MOL      0.425133
    177 O24         1.2730    2.2110   -2.4940 oh        1 MOL     -0.883131
    178 H84         1.2350    3.1370   -2.2590 ho        1 MOL      0.425133
    179 H85         0.9420    2.1680   -3.3830 ho        1 MOL      0.425133
@<TRIPOS>BOND
     1    1    2 1   
     2    1    4 1   
     3    1    5 1   
     4    1    6 1   
     5    2    3 2   
     6    2    7 1   
     7    7    8 1   
     8    7   15 1   
     9    8    9 1   
    10    8   11 1   
    11    8   16 1   
    12    9   10 2   
    13    9   19 1   
    14   11   12 1   
    15   11   17 1   
    16   11   18 1   
    17   12   13 1   
    18   12   14 1   
    19   19   20 1   
    20   19   28 1   
    21   20   21 1   
    22   20   23 1   
    23   20   29 1   
    24   21   22 2   
    25   21   41 1   
    26   23   24 1   
    27   23   30 1   
    28   23   31 1   
    29   24   25 1   
    30   24   32 1   
    31   24   33 1   
    32   25   26 1   
    33   25   34 1   
    34   25   35 1   
    35   26   27 1   
    36   26   36 1   
    37   26   37 1   
    38   27   38 1   
    39   27   39 1   
    40   27   40 1   
    41   41   42 1   
    42   41   49 1   
    43   42   43 1   
    44   42   45 1   
    45   42   50 1   
    46   43   44 2   
    47   43   53 1   
    48   45   46 1   
    49   45   51 1   
    50   45   52 1   
    51   46   47 1   
    52   46   48 1   
    53   53   54 1   
    54   53   57 1   
    55   54   55 1   
    56   54   58 1   
    57   54   59 1   
    58   55   56 2   
    59   55   60 1   
    60   60   61 1   
    61   60   68 1   
    62   61   62 1   
    63   61   64 1   
    64   61   69 1   
    65   62   63 2   
    66   62   74 1   
    67   64   65 1   
    68   64   70 1   
    69   64   71 1   
    70   65   66 1   
    71   65   67 2   
    72   66   72 1   
    73   66   73 1   
    74   74   75 1   
    75   74   78 1   
    76   75   76 1   
    77   75   79 1   
    78   75   80 1   
    79   76   77 2   
    80   76   81 1   
    81   81   82 1   
    82   81   93 1   
    83   82   83 1   
    84   82   85 1   
    85   82   94 1   
    86   83   84 2   
    87   83  102 1   
    88   85   86 1   
    89   85   95 1   
    90   85   96 1   
    91   86   87 ar  
    92   86   88 ar  
    93   87   89 ar  
    94   87   97 1   
    95   88   90 ar  
    96   88   98 1   
    97   89   91 ar  
    98   89   99 1   
    99   90   91 ar  
   100   90  100 1   
   101   91   92 1   
   102   92  101 1   
   103  102  103 1   
   104  102  110 1   
   105  103  104 1   
   106  103  106 1   
   107  103  111 1   
   108  104  105 2   
   109  104  121 1   
   110  106  107 1   
   111  106  108 1   
   112  106  112 1   
   113  107  109 1   
   114  107  113 1   
   115  107  114 1   
   116  108  115 1   
   117  108  116 1   
   118  108  117 1   
   119  109  118 1   
   120  109  119 1   
   121  109  120 1   
   122  121  122 1   
   123  121  127 1   
   124  122  123 1   
   125  122  125 1   
   126  122  128 1   
   127  123  124 2   
   128  123  132 1   
   129  125  126 1   
   130  125  129 1   
   131  125  130 1   
   132  126  131 1   
   133  132  133 1   
   134  132  137 1   
   135  133  134 1   
   136  133  136 1   
   137  133  138 1   
   138  134  135 2   
   139  134  142 1   
   140  136  139 1   
   141  136  140 1   
   142  136  141 1   
   143  142  143 1   
   144  142  147 1   
   145  143  144 1   
   146  143  146 1   
   147  143  148 1   
   148  144  145 2   
   149  144  152 1   
   150  146  149 1   
   151  146  150 1   
   152  146  151 1   
   153  152  153 1   
   154  152  161 1   
   155  153  154 1   
   156  153  156 1   
   157  153  162 1   
   158  154  155 2   
   159  154  167 1   
   160  156  157 1   
   161  156  163 1   
   162  156  164 1   
   163  157  158 1   
   164  157  165 1   
   165  157  166 1   
   166  158  159 1   
   167  158  160 1   
   168  167  168 1   
   169  167  172 1   
   170  168  169 1   
   171  168  170 1   
   172  168  171 1   
   173  174  175 1   
   174  174  176 1   
   175  177  178 1   
   176  177  179 1   
@<TRIPOS>SUBSTRUCTURE
     1 MOL         1 TEMP              0 ****  ****    0 ROOT
