@<TRIPOS>MOLECULE
MOL
  175   173     1     0     0
SMALL
resp


@<TRIPOS>ATOM
      1 C1          0.0770    4.2630    5.4420 c3        1 MOL     -0.416277
      2 C2         -0.4920    4.1530    4.0260 c         1 MOL      0.748266
      3 O1          0.2530    4.4300    3.1000 o         1 MOL     -0.567779
      4 H1          0.5530    3.3220    5.7160 hc        1 MOL      0.099935
      5 H2          0.8130    5.0660    5.4770 hc        1 MOL      0.099935
      6 H3         -0.7300    4.4780    6.1430 hc        1 MOL      0.099935
      7 N1         -1.7650    3.7680    3.8160 n         1 MOL     -0.678735
      8 C3         -2.4550    3.5470    2.5430 c3        1 MOL      0.295614
      9 C4         -2.5300    4.7380    1.6130 c         1 MOL      0.561120
     10 O2         -2.7670    5.8410    2.0800 o         1 MOL     -0.555757
     11 C5         -3.8110    3.0040    2.8590 c3        1 MOL     -0.313234
     12 C6         -4.4830    2.4770    1.5500 c         1 MOL      0.719167
     13 O3         -5.6620    2.7470    1.3260 o         1 MOL     -0.649790
     14 O4         -3.8820    1.7370    0.7140 o         1 MOL     -0.649790
     15 H4         -2.1560    3.3870    4.6640 hn        1 MOL      0.315982
     16 H5         -1.8760    2.8170    1.9650 h1        1 MOL     -0.010791
     17 H6         -4.4220    3.7530    3.3590 hc        1 MOL      0.061930
     18 H7         -3.6480    2.1280    3.4830 hc        1 MOL      0.061930
     19 N2         -2.4410    4.5120    0.2640 n         1 MOL     -0.498032
     20 C7         -2.6520    5.4890   -0.7380 c3        1 MOL      0.408460
     21 C8         -3.5910    4.9820   -1.8830 c         1 MOL      0.447399
     22 O5         -3.7020    5.6670   -2.9040 o         1 MOL     -0.566296
     23 C9         -1.2210    5.9750   -1.1720 c3        1 MOL     -0.377335
     24 H8         -2.0950    3.5930    0.0190 hn        1 MOL      0.259645
     25 H9         -3.1450    6.3730   -0.3460 h1        1 MOL     -0.017308
     26 H10        -0.7140    6.2660   -0.2440 hc        1 MOL      0.092680
     27 H11        -0.7310    5.1690   -1.7140 hc        1 MOL      0.092680
     28 H12        -1.1490    6.8570   -1.7990 hc        1 MOL      0.092680
     29 N3         -4.3110    3.8080   -1.6950 n         1 MOL     -0.415561
     30 C10        -5.0940    3.1780   -2.7970 c3        1 MOL      0.184953
     31 C11        -6.3230    2.3700   -2.2720 c         1 MOL      0.295329
     32 O6         -7.1670    2.0430   -3.0810 o         1 MOL     -0.559010
     33 C12        -4.2690    2.2690   -3.7250 c3        1 MOL     -0.228439
     34 C13        -3.4940    1.1100   -3.0260 c         1 MOL      0.805930
     35 O7         -3.6790    0.7510   -1.8420 o         1 MOL     -0.714732
     36 O8         -2.6160    0.6230   -3.6880 o         1 MOL     -0.714732
     37 H13        -4.3660    3.4180   -0.7690 hn        1 MOL      0.188548
     38 H14        -5.5430    3.9190   -3.4610 h1        1 MOL      0.054112
     39 H15        -3.5200    2.8530   -4.2670 hc        1 MOL      0.055638
     40 H16        -4.9520    1.7900   -4.4270 hc        1 MOL      0.055638
     41 N4         -6.3790    1.9470   -1.0450 n         1 MOL     -0.021785
     42 C14        -7.5250    1.0430   -0.4700 c3        1 MOL     -0.308152
     43 C15        -7.4510   -0.3420   -0.9650 c         1 MOL      0.527001
     44 O9         -8.3010   -1.2040   -0.7590 o         1 MOL     -0.603958
     45 H17        -5.5410    1.9800   -0.4810 hn        1 MOL      0.046954
     46 H18        -8.5110    1.4330   -0.7400 h1        1 MOL      0.148850
     47 H19        -7.4610    1.0310    0.6210 h1        1 MOL      0.148850
     48 N5         -6.3150   -0.7980   -1.5770 n         1 MOL     -0.190987
     49 C16        -6.1830   -2.1640   -2.1150 c3        1 MOL     -0.075859
     50 C17        -6.3520   -3.3110   -1.0610 c         1 MOL      0.546797
     51 O10        -6.6990   -4.4050   -1.3990 o         1 MOL     -0.580698
     52 C18        -4.8140   -2.2210   -2.9710 c3        1 MOL     -0.173647
     53 C19        -3.5680   -2.3390   -2.1530 c         1 MOL      0.467501
     54 N6         -2.4920   -2.7990   -2.7160 n         1 MOL     -0.500563
     55 O11        -3.5010   -2.0900   -0.9500 o         1 MOL     -0.288752
     56 H20        -5.5160   -0.1910   -1.6710 hn        1 MOL      0.195600
     57 H21        -7.0210   -2.2780   -2.8120 h1        1 MOL      0.083520
     58 H22        -4.7230   -1.3710   -3.6440 hc        1 MOL      0.067818
     59 H23        -4.9100   -3.1200   -3.5830 hc        1 MOL      0.067818
     60 H24        -2.5050   -3.1060   -3.6730 hn        1 MOL      0.297322
     61 H25        -1.6240   -2.4120   -2.3800 hn        1 MOL      0.297322
     62 N7         -6.0530   -2.9870    0.2020 n         1 MOL     -0.093031
     63 C20        -6.0900   -3.8430    1.4040 c3        1 MOL     -0.352187
     64 C21        -4.7480   -4.5550    1.7050 c         1 MOL      0.597909
     65 O12        -4.6950   -5.4030    2.5820 o         1 MOL     -0.591130
     66 H26        -5.7240   -2.0420    0.2960 hn        1 MOL      0.132755
     67 H27        -6.7680   -4.6790    1.1860 h1        1 MOL      0.135121
     68 H28        -6.4460   -3.2520    2.2420 h1        1 MOL      0.135121
     69 N8         -3.6330   -4.0910    1.1310 n         1 MOL     -0.084368
     70 C22        -2.3050   -4.6440    1.3450 c3        1 MOL     -0.351437
     71 C23        -1.2370   -3.5010    1.5470 c         1 MOL      0.839023
     72 O13        -1.6140   -2.3500    1.2010 o         1 MOL     -0.737557
     73 C24        -1.8310   -5.5910    0.2740 c3        1 MOL      0.673927
     74 C25        -2.5480   -6.8470    0.2600 c3        1 MOL     -0.475168
     75 O14        -1.8720   -5.0030   -0.9740 oh        1 MOL     -0.604982
     76 H29        -3.7380   -3.3200    0.4930 hn        1 MOL      0.008035
     77 H30        -2.2670   -5.2890    2.2170 h1        1 MOL      0.087669
     78 H31        -0.7820   -5.7060    0.5670 h1        1 MOL     -0.087338
     79 H32        -2.2110   -4.1110   -0.9080 ho        1 MOL      0.231194
     80 H33        -3.5690   -6.6890   -0.0770 hc        1 MOL      0.106227
     81 H34        -2.0600   -7.4410   -0.5180 hc        1 MOL      0.106227
     82 H35        -2.4910   -7.4620    1.1570 hc        1 MOL      0.106227
     83 N9         -0.0290   -3.7730    2.1140 n         1 MOL     -0.692542
     84 C26         1.0480   -2.8420    1.9620 c3        1 MOL      0.062790
     85 C27         1.8290   -3.1760    0.7050 c         1 MOL      0.634835
     86 O15         2.2370   -4.2920    0.4740 o         1 MOL     -0.597600
     87 C28         1.9110   -2.8860    3.2850 c3        1 MOL     -0.075773
     88 C29         1.1870   -2.1420    4.3920 c3        1 MOL      0.361354
     89 C30         3.2300   -2.0390    3.1070 c3        1 MOL     -0.055907
     90 C31         1.6120   -2.3500    5.8670 c3        1 MOL     -0.370094
     91 H36         0.1840   -4.7030    2.4330 hn        1 MOL      0.336317
     92 H37         0.6510   -1.8430    1.7820 h1        1 MOL      0.126413
     93 H38         2.1060   -3.8590    3.7190 hc        1 MOL      0.036277
     94 H39         0.1200   -2.3280    4.4030 hc        1 MOL     -0.062349
     95 H40         1.1740   -1.0630    4.2230 hc        1 MOL     -0.062349
     96 H41         3.7840   -2.2040    4.0290 hc        1 MOL     -0.002323
     97 H42         3.7800   -2.4810    2.2810 hc        1 MOL     -0.002323
     98 H43         3.0380   -0.9770    2.9740 hc        1 MOL     -0.002323
     99 H44         1.3350   -1.4750    6.4450 hc        1 MOL      0.073257
    100 H45         1.0570   -3.2470    6.1650 hc        1 MOL      0.073257
    101 H46         2.6940   -2.4790    5.8610 hc        1 MOL      0.073257
    102 N10         2.0530   -2.0980    0.0180 n         1 MOL     -0.292539
    103 C32         2.8150   -1.9220   -1.1910 c3        1 MOL     -0.010767
    104 C33         4.2700   -1.4430   -0.8190 c         1 MOL      0.492493
    105 O16         4.4770   -0.8720    0.2600 o         1 MOL     -0.271227
    106 C34         2.0730   -0.9360   -2.1200 c3        1 MOL     -0.357137
    107 C35         0.5580   -1.3140   -2.3440 c         1 MOL      0.851112
    108 O17        -0.3420   -0.7260   -1.7810 o         1 MOL     -0.707647
    109 O18         0.3310   -2.1400   -3.2290 o         1 MOL     -0.707647
    110 H47         1.6000   -1.2890    0.4240 hn        1 MOL      0.063214
    111 H48         2.8510   -2.9060   -1.6510 h1        1 MOL      0.087444
    112 H49         2.5370   -0.9540   -3.1050 hc        1 MOL      0.111117
    113 H50         2.0410    0.0970   -1.7980 hc        1 MOL      0.111117
    114 N11         5.2350   -1.6410   -1.7530 n         1 MOL     -0.688026
    115 C36         6.6520   -1.3650   -1.3210 c3        1 MOL      0.360894
    116 C37         6.8920    0.1590   -1.0270 c         1 MOL      0.292243
    117 O19         7.4820    0.5170   -0.0420 o         1 MOL     -0.461250
    118 C38         7.5540   -2.0180   -2.3070 c3        1 MOL     -0.127322
    119 C39         9.0600   -1.6940   -1.9850 ca        1 MOL      0.037393
    120 C40         9.6210   -2.1700   -0.7920 ca        1 MOL     -0.159834
    121 C41         9.8640   -0.9830   -2.9060 ca        1 MOL     -0.159834
    122 C42        10.9330   -1.8320   -0.4590 ca        1 MOL     -0.114990
    123 C43        11.2040   -0.6960   -2.6110 ca        1 MOL     -0.114990
    124 C44        11.7310   -1.1170   -1.3910 ca        1 MOL     -0.074241
    125 H51         5.0740   -2.1310   -2.6150 hn        1 MOL      0.352408
    126 H52         6.7330   -1.9450   -0.3940 h1        1 MOL      0.040030
    127 H53         7.3110   -1.7480   -3.3370 hc        1 MOL      0.049014
    128 H54         7.3860   -3.0900   -2.3280 hc        1 MOL      0.049014
    129 H55         9.0080   -2.7070   -0.0850 ha        1 MOL      0.121401
    130 H56         9.5080   -0.7540   -3.8850 ha        1 MOL      0.121401
    131 H57        11.3050   -2.0840    0.5220 ha        1 MOL      0.115250
    132 H58        11.7400   -0.1440   -3.3630 ha        1 MOL      0.115250
    133 H59        12.8020   -1.0260   -1.2410 ha        1 MOL      0.078524
    134 N12         6.4370    1.1380   -1.8750 n         1 MOL     -0.036850
    135 C45         6.3030    2.6540   -1.6260 c3        1 MOL      0.038022
    136 C46         5.6610    2.9410   -0.2510 c         1 MOL      0.304781
    137 O20         5.8550    4.0400    0.2580 o         1 MOL     -0.494951
    138 C47         5.4870    3.2220   -2.8340 c3        1 MOL     -0.182392
    139 C48         5.8670    2.2600   -3.9730 c3        1 MOL      0.031369
    140 C49         6.0200    0.8750   -3.2720 c3        1 MOL     -0.125456
    141 H60         7.2770    3.1400   -1.5200 h1        1 MOL      0.066686
    142 H61         4.4420    2.9600   -2.7230 hc        1 MOL      0.100081
    143 H62         5.5830    4.2890   -3.0250 hc        1 MOL      0.100081
    144 H63         5.1210    2.2310   -4.7630 hc        1 MOL      0.014236
    145 H64         6.8480    2.4930   -4.4000 hc        1 MOL      0.014236
    146 H65         4.9930    0.5090   -3.3460 h1        1 MOL      0.051132
    147 H66         6.8600    0.3360   -3.7110 h1        1 MOL      0.051132
    148 N13         4.7820    2.0730    0.3110 n         1 MOL     -0.106751
    149 C50         4.1080    2.2430    1.6430 c3        1 MOL     -0.007763
    150 C51         4.9350    1.6400    2.8340 c         1 MOL      0.423586
    151 O21         5.1770    2.2580    3.8580 o         1 MOL     -0.563234
    152 C52         2.6760    1.6010    1.5610 c3        1 MOL     -0.043948
    153 C53         1.7520    2.1240    0.4510 c3        1 MOL     -0.063031
    154 C54         0.3630    1.5180    0.5400 c         1 MOL      0.740641
    155 O22         0.2480    0.3910    1.1340 o         1 MOL     -0.738016
    156 O23        -0.5840    1.9970   -0.1260 o         1 MOL     -0.738016
    157 H67         4.5410    1.2660   -0.2510 hn        1 MOL      0.118473
    158 H68         4.0600    3.3200    1.8370 h1        1 MOL      0.094586
    159 H69         2.1600    1.6690    2.5150 hc        1 MOL      0.045992
    160 H70         2.8590    0.5390    1.3640 hc        1 MOL      0.045992
    161 H71         2.1600    1.9050   -0.5380 hc        1 MOL      0.021187
    162 H72         1.7310    3.2070    0.5310 hc        1 MOL      0.021187
    163 N14         5.6360    0.5250    2.5740 n         1 MOL     -0.002817
    164 C55         6.7040   -0.1580    3.3790 c3        1 MOL     -0.152800
    165 H73         6.4690   -1.2190    3.4680 h1        1 MOL      0.067607
    166 H74         7.6660   -0.0410    2.8810 h1        1 MOL      0.067607
    167 H75         6.7520    0.2870    4.3730 h1        1 MOL      0.067607
    168 H76         5.3780    0.1140    1.6890 hn        1 MOL     -0.038924
    169 Ca1        -2.1720   -0.0600   -0.0390 Ca        1 MOL      1.675942
    170 O24        -2.0730    0.1330    2.6110 oh        1 MOL     -0.752731
    171 H77        -1.1310   -0.0220    2.6080 ho        1 MOL      0.371277
    172 H78        -2.3070    0.1520    3.5350 ho        1 MOL      0.371277
    173 O25        -4.9620   -0.5570    1.2750 oh        1 MOL     -0.752731
    174 H79        -4.8880    0.3980    1.2390 ho        1 MOL      0.371277
    175 H80        -5.5690   -0.7140    2.0020 ho        1 MOL      0.371277
@<TRIPOS>BOND
     1    1    2 1   
     2    1    4 1   
     3    1    5 1   
     4    1    6 1   
     5    2    3 2   
     6    2    7 1   
     7    7    8 1   
     8    7   15 1   
     9    8    9 1   
    10    8   11 1   
    11    8   16 1   
    12    9   10 2   
    13    9   19 1   
    14   11   12 1   
    15   11   17 1   
    16   11   18 1   
    17   12   13 1   
    18   12   14 1   
    19   19   20 1   
    20   19   24 1   
    21   20   21 1   
    22   20   23 1   
    23   20   25 1   
    24   21   22 2   
    25   21   29 1   
    26   23   26 1   
    27   23   27 1   
    28   23   28 1   
    29   29   30 1   
    30   29   37 1   
    31   30   31 1   
    32   30   33 1   
    33   30   38 1   
    34   31   32 2   
    35   31   41 1   
    36   33   34 1   
    37   33   39 1   
    38   33   40 1   
    39   34   35 1   
    40   34   36 1   
    41   41   42 1   
    42   41   45 1   
    43   42   43 1   
    44   42   46 1   
    45   42   47 1   
    46   43   44 2   
    47   43   48 1   
    48   48   49 1   
    49   48   56 1   
    50   49   50 1   
    51   49   52 1   
    52   49   57 1   
    53   50   51 2   
    54   50   62 1   
    55   52   53 1   
    56   52   58 1   
    57   52   59 1   
    58   53   54 1   
    59   53   55 2   
    60   54   60 1   
    61   54   61 1   
    62   62   63 1   
    63   62   66 1   
    64   63   64 1   
    65   63   67 1   
    66   63   68 1   
    67   64   65 2   
    68   64   69 1   
    69   69   70 1   
    70   69   76 1   
    71   70   71 1   
    72   70   73 1   
    73   70   77 1   
    74   71   72 2   
    75   71   83 1   
    76   73   74 1   
    77   73   75 1   
    78   73   78 1   
    79   74   80 1   
    80   74   81 1   
    81   74   82 1   
    82   75   79 1   
    83   83   84 1   
    84   83   91 1   
    85   84   85 1   
    86   84   87 1   
    87   84   92 1   
    88   85   86 2   
    89   85  102 1   
    90   87   88 1   
    91   87   89 1   
    92   87   93 1   
    93   88   90 1   
    94   88   94 1   
    95   88   95 1   
    96   89   96 1   
    97   89   97 1   
    98   89   98 1   
    99   90   99 1   
   100   90  100 1   
   101   90  101 1   
   102  102  103 1   
   103  102  110 1   
   104  103  104 1   
   105  103  106 1   
   106  103  111 1   
   107  104  105 2   
   108  104  114 1   
   109  106  107 1   
   110  106  112 1   
   111  106  113 1   
   112  107  108 1   
   113  107  109 1   
   114  114  115 1   
   115  114  125 1   
   116  115  116 1   
   117  115  118 1   
   118  115  126 1   
   119  116  117 2   
   120  116  134 1   
   121  118  119 1   
   122  118  127 1   
   123  118  128 1   
   124  119  120 ar  
   125  119  121 ar  
   126  120  122 ar  
   127  120  129 1   
   128  121  123 ar  
   129  121  130 1   
   130  122  124 ar  
   131  122  131 1   
   132  123  124 ar  
   133  123  132 1   
   134  124  133 1   
   135  134  135 1   
   136  134  140 1   
   137  135  136 1   
   138  135  138 1   
   139  135  141 1   
   140  136  137 2   
   141  136  148 1   
   142  138  139 1   
   143  138  142 1   
   144  138  143 1   
   145  139  140 1   
   146  139  144 1   
   147  139  145 1   
   148  140  146 1   
   149  140  147 1   
   150  148  149 1   
   151  148  157 1   
   152  149  150 1   
   153  149  152 1   
   154  149  158 1   
   155  150  151 2   
   156  150  163 1   
   157  152  153 1   
   158  152  159 1   
   159  152  160 1   
   160  153  154 1   
   161  153  161 1   
   162  153  162 1   
   163  154  155 1   
   164  154  156 1   
   165  163  164 1   
   166  163  168 1   
   167  164  165 1   
   168  164  166 1   
   169  164  167 1   
   170  170  171 1   
   171  170  172 1   
   172  173  174 1   
   173  173  175 1   
@<TRIPOS>SUBSTRUCTURE
     1 MOL         1 TEMP              0 ****  ****    0 ROOT
