@<TRIPOS>MOLECULE
MOL
  179   176     1     0     0
SMALL
resp


@<TRIPOS>ATOM
      1 C1         -0.7090    4.6730    5.3620 c3        1 MOL     -0.327946
      2 C2         -0.9000    4.1840    3.9220 c         1 MOL      0.681842
      3 O1         -0.2060    4.6770    3.0760 o         1 MOL     -0.560433
      4 H1         -0.5520    5.7520    5.3620 hc        1 MOL      0.082872
      5 H2         -1.5970    4.4360    5.9480 hc        1 MOL      0.082872
      6 H3          0.1590    4.1810    5.8010 hc        1 MOL      0.082872
      7 N1         -1.8390    3.2690    3.6430 n         1 MOL     -0.594593
      8 C3         -2.1220    2.5390    2.4050 c3        1 MOL      0.253684
      9 C4         -2.9890    3.3750    1.4700 c         1 MOL      0.504842
     10 O2         -4.1710    3.1490    1.3760 o         1 MOL     -0.500468
     11 C5         -2.7920    1.1540    2.7750 c3        1 MOL     -0.074393
     12 C6         -2.9040    0.2970    1.4630 c         1 MOL      0.877497
     13 O3         -2.2400    0.6450    0.4390 o         1 MOL     -0.788684
     14 O4         -3.8440   -0.5340    1.3370 o         1 MOL     -0.788684
     15 H4         -2.3440    2.8970    4.4340 hn        1 MOL      0.299762
     16 H5         -1.1450    2.3270    1.9710 h1        1 MOL      0.016513
     17 H6         -3.7890    1.3590    3.1520 hc        1 MOL     -0.003900
     18 H7         -2.1360    0.6210    3.4720 hc        1 MOL     -0.003900
     19 N2         -2.4000    4.4810    1.0000 n         1 MOL     -0.562133
     20 C7         -3.1570    5.5370    0.4030 c3        1 MOL      0.434839
     21 C8         -3.8010    5.1300   -0.9840 c         1 MOL      0.360456
     22 O5         -4.7810    5.7540   -1.3060 o         1 MOL     -0.517291
     23 C9         -2.2070    6.7470    0.2180 c3        1 MOL     -0.344758
     24 C10        -2.7040    7.9020    1.1530 c3        1 MOL     -0.078969
     25 C11        -4.0200    8.6020    0.9220 c3        1 MOL     -0.115688
     26 C12        -3.9260    9.7810   -0.0440 c3        1 MOL      0.062321
     27 N3         -4.2710   11.0410    0.6180 n4        1 MOL     -0.332581
     28 H8         -1.4840    4.7430    1.3330 hn        1 MOL      0.289366
     29 H9         -3.9750    5.7300    1.0920 h1        1 MOL     -0.009417
     30 H10        -2.2740    7.0790   -0.8200 hc        1 MOL      0.123264
     31 H11        -1.1860    6.6520    0.5720 hc        1 MOL      0.123264
     32 H12        -1.9060    8.6310    1.2860 hc        1 MOL      0.059536
     33 H13        -2.5860    7.4590    2.1410 hc        1 MOL      0.059536
     34 H14        -4.3450    8.9580    1.8920 hc        1 MOL      0.060008
     35 H15        -4.6770    7.8660    0.4500 hc        1 MOL      0.060008
     36 H16        -4.6360    9.6010   -0.8460 hx        1 MOL      0.089120
     37 H17        -2.9060    9.8880   -0.4250 hx        1 MOL      0.089120
     38 H18        -3.7810   11.1960    1.4880 hn        1 MOL      0.316707
     39 H19        -4.1730   11.8340   -0.0030 hn        1 MOL      0.316707
     40 H20        -5.2350   11.0910    0.9250 hn        1 MOL      0.316707
     41 N4         -3.3750    4.0320   -1.6200 n         1 MOL     -0.395005
     42 C13        -4.1910    3.4490   -2.7880 c3        1 MOL      0.194531
     43 C14        -5.4550    2.5630   -2.2850 c         1 MOL      0.322332
     44 O6         -6.4780    2.4190   -2.9530 o         1 MOL     -0.499396
     45 C15        -3.3210    2.6630   -3.7500 c3        1 MOL     -0.222285
     46 C16        -2.5190    1.4640   -3.1570 c         1 MOL      0.799263
     47 O7         -3.1450    0.4340   -2.9570 o         1 MOL     -0.750207
     48 O8         -1.3970    1.7500   -2.6680 o         1 MOL     -0.750207
     49 H21        -2.5000    3.6310   -1.3330 hn        1 MOL      0.260420
     50 H22        -4.7470    4.1440   -3.4230 h1        1 MOL      0.037951
     51 H23        -2.5920    3.2250   -4.3430 hc        1 MOL      0.041533
     52 H24        -3.9780    2.2160   -4.4930 hc        1 MOL      0.041533
     53 N5         -5.2290    1.8370   -1.1850 n         1 MOL      0.181976
     54 C17        -6.1850    0.9240   -0.6000 c3        1 MOL     -0.322812
     55 C18        -6.3360   -0.3840   -1.3150 c         1 MOL      0.796868
     56 O9         -7.1890   -0.5170   -2.1880 o         1 MOL     -0.560042
     57 H25        -4.3220    2.0010   -0.7920 hn        1 MOL     -0.030682
     58 H26        -7.2000    1.3420   -0.5890 h1        1 MOL      0.090547
     59 H27        -5.8120    0.7720    0.4070 h1        1 MOL      0.090547
     60 N6         -5.5320   -1.3590   -0.8540 n         1 MOL     -0.574888
     61 C19        -5.7530   -2.8180   -1.1570 c3        1 MOL      0.014197
     62 C20        -5.4180   -3.8180    0.0150 c         1 MOL      0.474585
     63 O10        -5.4540   -5.0370   -0.2190 o         1 MOL     -0.491919
     64 C21        -4.8160   -3.1840   -2.3500 c3        1 MOL     -0.333469
     65 C22        -3.3510   -3.4020   -2.1070 c         1 MOL      0.584440
     66 N7         -2.7120   -4.4840   -2.5760 n         1 MOL     -0.796149
     67 O11        -2.7000   -2.6650   -1.4400 o         1 MOL     -0.569621
     68 H28        -4.6830   -1.0430   -0.4080 hn        1 MOL      0.273055
     69 H29        -6.7610   -3.0230   -1.5060 h1        1 MOL      0.121100
     70 H30        -4.8400   -2.4230   -3.1390 hc        1 MOL      0.139854
     71 H31        -5.1680   -4.1170   -2.8090 hc        1 MOL      0.139854
     72 H32        -3.2570   -5.2130   -2.9990 hn        1 MOL      0.381619
     73 H33        -1.7000   -4.4410   -2.5210 hn        1 MOL      0.381619
     74 N8         -5.1480   -3.2810    1.2100 n         1 MOL     -0.460617
     75 C23        -4.5930   -4.1210    2.3270 c3        1 MOL      0.014177
     76 C24        -3.1430   -4.5230    2.3620 c         1 MOL      0.348985
     77 O12        -2.6470   -5.0490    3.3610 o         1 MOL     -0.565664
     78 H34        -5.2320   -2.2830    1.3200 hn        1 MOL      0.352075
     79 H35        -5.1490   -5.0590    2.3770 h1        1 MOL      0.089549
     80 H36        -4.8300   -3.7460    3.3200 h1        1 MOL      0.089549
     81 N9         -2.3320   -4.2810    1.3430 n         1 MOL      0.018500
     82 C25        -0.8790   -4.4850    1.4290 c3        1 MOL      0.174974
     83 C26        -0.1810   -3.1640    1.3590 c         1 MOL      0.343783
     84 O13        -0.6460   -2.3150    0.5750 o         1 MOL     -0.743924
     85 C27        -0.3770   -5.3940    0.3650 c3        1 MOL      0.074644
     86 C28        -0.9740   -6.7310    0.3650 ca        1 MOL     -0.070187
     87 C29        -2.3650   -6.9240    0.0060 ca        1 MOL     -0.128103
     88 C30        -0.2220   -7.8670    0.8590 ca        1 MOL     -0.128103
     89 C31        -2.9030   -8.2720   -0.0120 ca        1 MOL     -0.281808
     90 C32        -0.7600   -9.1080    0.8630 ca        1 MOL     -0.281808
     91 C33        -2.1210   -9.3640    0.4220 ca        1 MOL      0.346931
     92 O14        -2.6190  -10.5940    0.2400 oh        1 MOL     -0.454859
     93 H37        -2.7000   -3.8720    0.4870 hn        1 MOL      0.239842
     94 H38        -0.4770   -4.9210    2.3420 h1        1 MOL      0.018040
     95 H39         0.6980   -5.5960    0.3690 hc        1 MOL     -0.005304
     96 H40        -0.5560   -4.9060   -0.5820 hc        1 MOL     -0.005304
     97 H41        -2.9930   -6.1280   -0.3470 ha        1 MOL      0.117059
     98 H42         0.8060   -7.7640    1.1620 ha        1 MOL      0.117059
     99 H43        -3.9110   -8.4550   -0.3490 ha        1 MOL      0.147211
    100 H44        -0.1670   -9.9640    1.1600 ha        1 MOL      0.147211
    101 H45        -1.9500  -11.2160    0.5380 ho        1 MOL      0.345669
    102 N10         0.9530   -2.9580    2.0190 n         1 MOL     -0.256075
    103 C34         1.9040   -1.8850    1.7370 c3        1 MOL     -0.555788
    104 C35         3.3160   -2.4300    1.4280 c         1 MOL      0.722061
    105 O15         3.8210   -3.3060    2.0740 o         1 MOL     -0.562445
    106 C36         1.8280   -0.7190    2.7760 c3        1 MOL      0.070412
    107 C37         2.2660   -1.1950    4.2010 c3        1 MOL     -0.062085
    108 C38         0.4910    0.0050    2.9250 c3        1 MOL     -0.149664
    109 C39         2.4390   -0.1330    5.2490 c3        1 MOL     -0.223388
    110 H46         1.2520   -3.7410    2.5820 hn        1 MOL      0.277124
    111 H47         1.6250   -1.5390    0.7420 h1        1 MOL      0.364200
    112 H48         2.4880    0.1060    2.5030 hc        1 MOL      0.026113
    113 H49         3.2220   -1.6770    4.0240 hc        1 MOL      0.068667
    114 H50         1.5180   -1.9230    4.5350 hc        1 MOL      0.068667
    115 H51         0.5250    0.7590    3.7120 hc        1 MOL      0.068293
    116 H52         0.3200    0.5020    1.9710 hc        1 MOL      0.068293
    117 H53        -0.3860   -0.6000    3.1470 hc        1 MOL      0.068293
    118 H54         3.0660    0.6780    4.8830 hc        1 MOL      0.057302
    119 H55         1.4250    0.1760    5.5180 hc        1 MOL      0.057302
    120 H56         2.9940   -0.5690    6.0850 hc        1 MOL      0.057302
    121 N11         3.8700   -1.9850    0.2940 n         1 MOL     -0.461893
    122 C40         5.2430   -2.3700   -0.2670 c3        1 MOL      0.009949
    123 C41         6.2550   -1.3540    0.1850 c         1 MOL      0.589616
    124 O16         5.9830   -0.2600    0.7130 o         1 MOL     -0.456276
    125 C42         5.1690   -2.6060   -1.7880 c3        1 MOL     -0.000168
    126 O17         5.0930   -1.3040   -2.3900 oh        1 MOL     -0.544158
    127 H57         3.2190   -1.4460   -0.2560 hn        1 MOL      0.260709
    128 H58         5.5320   -3.3260    0.1730 h1        1 MOL      0.049483
    129 H59         4.3560   -3.2760   -2.0940 h1        1 MOL      0.083713
    130 H60         6.0870   -3.1000   -2.0990 h1        1 MOL      0.083713
    131 H61         4.1780   -1.0100   -2.3260 ho        1 MOL      0.370307
    132 N12         7.5230   -1.6500   -0.1040 n         1 MOL     -0.495531
    133 C43         8.6790   -0.8470    0.3410 c3        1 MOL      0.021231
    134 C44         8.8860    0.3900   -0.5810 c         1 MOL      0.449151
    135 O18         9.2450    1.4520   -0.1080 o         1 MOL     -0.516706
    136 C45         9.9210   -1.7570    0.2950 c3        1 MOL     -0.256788
    137 H62         7.7320   -2.4410   -0.7000 hn        1 MOL      0.297612
    138 H63         8.5640   -0.5180    1.3700 h1        1 MOL      0.137472
    139 H64        10.0050   -2.2590   -0.6650 hc        1 MOL      0.086986
    140 H65        10.8370   -1.1980    0.4610 hc        1 MOL      0.086986
    141 H66         9.9910   -2.5050    1.0960 hc        1 MOL      0.086986
    142 N13         8.3370    0.3680   -1.7820 n         1 MOL     -0.366503
    143 C46         8.1020    1.4810   -2.6600 c3        1 MOL      0.073434
    144 C47         7.1140    2.5240   -2.1040 c         1 MOL      0.231546
    145 O19         7.1340    3.7580   -2.2970 o         1 MOL     -0.508693
    146 C48         7.5420    0.7830   -3.9830 c3        1 MOL     -0.318198
    147 H67         7.9010   -0.5240   -1.9370 hn        1 MOL      0.254040
    148 H68         9.0650    1.9440   -2.9060 h1        1 MOL      0.114923
    149 H69         6.6390    0.2160   -3.7430 hc        1 MOL      0.089747
    150 H70         7.3110    1.5930   -4.6830 hc        1 MOL      0.089747
    151 H71         8.3740    0.2470   -4.4230 hc        1 MOL      0.089747
    152 N14         6.1410    2.1080   -1.3590 n         1 MOL      0.174499
    153 C49         5.0520    2.9250   -0.9130 c3        1 MOL     -0.122787
    154 C50         5.3890    3.5800    0.4140 c         1 MOL      0.369315
    155 O20         5.1560    4.8100    0.5720 o         1 MOL     -0.535254
    156 C51         3.7230    2.1550   -0.7040 c3        1 MOL      0.315410
    157 C52         3.0840    1.5900   -1.9410 c3        1 MOL     -0.373511
    158 C53         2.0670    0.4690   -1.6290 c         1 MOL      0.849629
    159 O21         1.0250    0.7140   -0.9590 o         1 MOL     -0.768502
    160 O22         2.3450   -0.7410   -1.8880 o         1 MOL     -0.768502
    161 H72         6.0580    1.1270   -1.1470 hn        1 MOL      0.133348
    162 H73         4.7910    3.5800   -1.7490 h1        1 MOL      0.080209
    163 H74         3.0540    2.7880   -0.1220 hc        1 MOL     -0.038201
    164 H75         4.0240    1.2990   -0.1060 hc        1 MOL     -0.038201
    165 H76         3.8440    1.2220   -2.6190 hc        1 MOL      0.065269
    166 H77         2.5020    2.4500   -2.2760 hc        1 MOL      0.065269
    167 N15         6.0290    2.8180    1.3010 n         1 MOL     -0.125143
    168 C54         6.5990    3.2690    2.5810 c3        1 MOL     -0.243832
    169 H78         6.6540    4.3580    2.5900 h1        1 MOL      0.109117
    170 H79         5.9650    2.9300    3.4010 h1        1 MOL      0.109117
    171 H80         7.6000    2.8550    2.7000 h1        1 MOL      0.109117
    172 H81         5.9940    1.8370    1.0700 hn        1 MOL      0.124506
    173 Ca1        -1.1100   -0.5690   -1.4220 Ca        1 MOL      1.806060
    174 O23        -0.6880   -1.0790   -3.9660 oh        1 MOL     -0.857013
    175 H82        -0.8090   -2.0040   -4.1810 ho        1 MOL      0.412432
    176 H83        -0.4270   -0.6650   -4.7810 ho        1 MOL      0.412432
    177 O24         0.7930   -2.6820   -1.7890 oh        1 MOL     -0.857013
    178 H84         1.0160   -3.5690   -2.0710 ho        1 MOL      0.412432
    179 H85         1.6050   -2.1870   -1.8930 ho        1 MOL      0.412432
@<TRIPOS>BOND
     1    1    2 1   
     2    1    4 1   
     3    1    5 1   
     4    1    6 1   
     5    2    3 2   
     6    2    7 1   
     7    7    8 1   
     8    7   15 1   
     9    8    9 1   
    10    8   11 1   
    11    8   16 1   
    12    9   10 2   
    13    9   19 1   
    14   11   12 1   
    15   11   17 1   
    16   11   18 1   
    17   12   13 1   
    18   12   14 1   
    19   19   20 1   
    20   19   28 1   
    21   20   21 1   
    22   20   23 1   
    23   20   29 1   
    24   21   22 2   
    25   21   41 1   
    26   23   24 1   
    27   23   30 1   
    28   23   31 1   
    29   24   25 1   
    30   24   32 1   
    31   24   33 1   
    32   25   26 1   
    33   25   34 1   
    34   25   35 1   
    35   26   27 1   
    36   26   36 1   
    37   26   37 1   
    38   27   38 1   
    39   27   39 1   
    40   27   40 1   
    41   41   42 1   
    42   41   49 1   
    43   42   43 1   
    44   42   45 1   
    45   42   50 1   
    46   43   44 2   
    47   43   53 1   
    48   45   46 1   
    49   45   51 1   
    50   45   52 1   
    51   46   47 1   
    52   46   48 1   
    53   53   54 1   
    54   53   57 1   
    55   54   55 1   
    56   54   58 1   
    57   54   59 1   
    58   55   56 2   
    59   55   60 1   
    60   60   61 1   
    61   60   68 1   
    62   61   62 1   
    63   61   64 1   
    64   61   69 1   
    65   62   63 2   
    66   62   74 1   
    67   64   65 1   
    68   64   70 1   
    69   64   71 1   
    70   65   66 1   
    71   65   67 2   
    72   66   72 1   
    73   66   73 1   
    74   74   75 1   
    75   74   78 1   
    76   75   76 1   
    77   75   79 1   
    78   75   80 1   
    79   76   77 2   
    80   76   81 1   
    81   81   82 1   
    82   81   93 1   
    83   82   83 1   
    84   82   85 1   
    85   82   94 1   
    86   83   84 2   
    87   83  102 1   
    88   85   86 1   
    89   85   95 1   
    90   85   96 1   
    91   86   87 ar  
    92   86   88 ar  
    93   87   89 ar  
    94   87   97 1   
    95   88   90 ar  
    96   88   98 1   
    97   89   91 ar  
    98   89   99 1   
    99   90   91 ar  
   100   90  100 1   
   101   91   92 1   
   102   92  101 1   
   103  102  103 1   
   104  102  110 1   
   105  103  104 1   
   106  103  106 1   
   107  103  111 1   
   108  104  105 2   
   109  104  121 1   
   110  106  107 1   
   111  106  108 1   
   112  106  112 1   
   113  107  109 1   
   114  107  113 1   
   115  107  114 1   
   116  108  115 1   
   117  108  116 1   
   118  108  117 1   
   119  109  118 1   
   120  109  119 1   
   121  109  120 1   
   122  121  122 1   
   123  121  127 1   
   124  122  123 1   
   125  122  125 1   
   126  122  128 1   
   127  123  124 2   
   128  123  132 1   
   129  125  126 1   
   130  125  129 1   
   131  125  130 1   
   132  126  131 1   
   133  132  133 1   
   134  132  137 1   
   135  133  134 1   
   136  133  136 1   
   137  133  138 1   
   138  134  135 2   
   139  134  142 1   
   140  136  139 1   
   141  136  140 1   
   142  136  141 1   
   143  142  143 1   
   144  142  147 1   
   145  143  144 1   
   146  143  146 1   
   147  143  148 1   
   148  144  145 2   
   149  144  152 1   
   150  146  149 1   
   151  146  150 1   
   152  146  151 1   
   153  152  153 1   
   154  152  161 1   
   155  153  154 1   
   156  153  156 1   
   157  153  162 1   
   158  154  155 2   
   159  154  167 1   
   160  156  157 1   
   161  156  163 1   
   162  156  164 1   
   163  157  158 1   
   164  157  165 1   
   165  157  166 1   
   166  158  159 1   
   167  158  160 1   
   168  167  168 1   
   169  167  172 1   
   170  168  169 1   
   171  168  170 1   
   172  168  171 1   
   173  174  175 1   
   174  174  176 1   
   175  177  178 1   
   176  177  179 1   
@<TRIPOS>SUBSTRUCTURE
     1 MOL         1 TEMP              0 ****  ****    0 ROOT
