@<TRIPOS>MOLECULE
MOL
  175   173     1     0     0
SMALL
resp


@<TRIPOS>ATOM
      1 C1          0.5170    3.9310    5.5880 c3        1 MOL     -0.382948
      2 C2         -0.1360    3.7960    4.1810 c         1 MOL      0.735039
      3 O1          0.6190    3.9650    3.2400 o         1 MOL     -0.536053
      4 H1         -0.0550    3.3490    6.3100 hc        1 MOL      0.091680
      5 H2          1.5410    3.5600    5.5510 hc        1 MOL      0.091680
      6 H3          0.5210    4.9790    5.8880 hc        1 MOL      0.091680
      7 N1         -1.4950    3.7260    4.0310 n         1 MOL     -0.762705
      8 C3         -2.0830    3.4400    2.7430 c3        1 MOL      0.373940
      9 C4         -2.0980    4.6760    1.7840 c         1 MOL      0.625358
     10 O2         -2.3870    5.7930    2.2690 o         1 MOL     -0.596131
     11 C5         -3.4190    2.7230    2.9340 c3        1 MOL     -0.512117
     12 C6         -4.2190    2.1900    1.6940 c         1 MOL      0.851692
     13 O3         -5.4190    1.7500    1.8660 o         1 MOL     -0.702027
     14 O4         -3.6460    2.1380    0.5980 o         1 MOL     -0.702027
     15 H4         -2.0280    3.7180    4.8990 hn        1 MOL      0.366733
     16 H5         -1.3940    2.7550    2.2370 h1        1 MOL     -0.005295
     17 H6         -4.0400    3.4320    3.4880 hc        1 MOL      0.095960
     18 H7         -3.2220    1.9300    3.6520 hc        1 MOL      0.095960
     19 N2         -1.9380    4.4560    0.4830 n         1 MOL     -0.665690
     20 C7         -1.9870    5.5600   -0.5070 c3        1 MOL      0.233990
     21 C8         -3.0350    5.2470   -1.6170 c         1 MOL      0.435561
     22 O5         -3.1510    5.9910   -2.5940 o         1 MOL     -0.566809
     23 C9         -0.6150    5.9030   -1.0650 c3        1 MOL     -0.096817
     24 H8         -1.5780    3.5440    0.2460 hn        1 MOL      0.413297
     25 H9         -2.2760    6.5060   -0.0520 h1        1 MOL      0.033291
     26 H10        -0.5000    6.6880   -1.8070 hc        1 MOL      0.028786
     27 H11         0.0250    6.2880   -0.2650 hc        1 MOL      0.028786
     28 H12        -0.1590    4.9980   -1.4650 hc        1 MOL      0.028786
     29 N3         -3.7130    4.0770   -1.6060 n         1 MOL     -0.413268
     30 C10        -4.5410    3.6210   -2.7610 c3        1 MOL      0.170516
     31 C11        -5.9220    3.0390   -2.4280 c         1 MOL      0.296115
     32 O6         -6.7900    2.9910   -3.2560 o         1 MOL     -0.541599
     33 C12        -3.8340    2.5720   -3.6250 c3        1 MOL     -0.096228
     34 C13        -3.0150    1.5640   -2.8700 c         1 MOL      0.668726
     35 O7         -3.5160    0.8700   -1.9890 o         1 MOL     -0.685018
     36 O8         -1.8200    1.5010   -3.1210 o         1 MOL     -0.685018
     37 H13        -3.4510    3.3820   -0.9250 hn        1 MOL      0.307830
     38 H14        -4.6450    4.5320   -3.3470 h1        1 MOL      0.061829
     39 H15        -3.1990    3.1650   -4.2910 hc        1 MOL      0.023679
     40 H16        -4.5360    2.1810   -4.3540 hc        1 MOL      0.023679
     41 N4         -6.0180    2.3290   -1.2900 n         1 MOL     -0.039036
     42 C14        -7.2300    1.6190   -0.8600 c3        1 MOL     -0.276455
     43 C15        -7.2710    0.1020   -1.1260 c         1 MOL      0.558770
     44 O9         -8.3020   -0.4840   -0.7970 o         1 MOL     -0.593903
     45 H17        -5.2160    2.2860   -0.6650 hn        1 MOL      0.013300
     46 H18        -8.1600    2.0060   -1.2750 h1        1 MOL      0.128913
     47 H19        -7.3330    1.7260    0.2260 h1        1 MOL      0.128913
     48 N5         -6.1640   -0.4400   -1.7460 n         1 MOL     -0.282371
     49 C16        -6.1490   -1.7390   -2.3770 c3        1 MOL      0.044650
     50 C17        -6.4090   -2.8690   -1.3510 c         1 MOL      0.407078
     51 O10        -6.6580   -4.0390   -1.8060 o         1 MOL     -0.573499
     52 C18        -4.9780   -1.9560   -3.2380 c3        1 MOL     -0.222303
     53 C19        -3.6850   -2.2630   -2.4730 c         1 MOL      0.678975
     54 N6         -2.5910   -2.4060   -3.1880 n         1 MOL     -0.723359
     55 O11        -3.6520   -2.3460   -1.2860 o         1 MOL     -0.417162
     56 H20        -5.3470    0.1620   -1.7030 hn        1 MOL      0.209422
     57 H21        -7.1050   -1.8110   -2.9020 h1        1 MOL      0.075337
     58 H22        -4.7500   -1.0370   -3.7800 hc        1 MOL      0.062331
     59 H23        -5.0820   -2.8200   -3.8950 hc        1 MOL      0.062331
     60 H24        -2.6840   -2.3460   -4.1930 hn        1 MOL      0.341077
     61 H25        -1.6600   -2.3870   -2.8090 hn        1 MOL      0.341077
     62 N7         -6.4250   -2.6140   -0.0740 n         1 MOL     -0.175198
     63 C20        -6.6910   -3.5170    1.0780 c3        1 MOL     -0.066960
     64 C21        -5.4080   -4.3180    1.6740 c         1 MOL      0.451515
     65 O12        -5.4930   -5.3250    2.3690 o         1 MOL     -0.547640
     66 H26        -6.3180   -1.6360    0.1240 hn        1 MOL      0.237715
     67 H27        -7.5110   -4.1960    0.8590 h1        1 MOL      0.065570
     68 H28        -7.1230   -2.8490    1.8430 h1        1 MOL      0.065570
     69 N8         -4.2620   -3.7550    1.2340 n         1 MOL     -0.155613
     70 C22        -2.8780   -4.4510    1.3320 c3        1 MOL     -0.102341
     71 C23        -1.7460   -3.4580    1.5870 c         1 MOL      0.520297
     72 O13        -1.9880   -2.3070    1.2680 o         1 MOL     -0.526163
     73 C24        -2.5770   -5.3590    0.1830 c3        1 MOL      0.794169
     74 C25        -3.2040   -6.7950    0.2100 c3        1 MOL     -0.485997
     75 O14        -2.7670   -4.7630   -1.0250 oh        1 MOL     -0.679914
     76 H29        -4.2680   -2.8910    0.7200 hn        1 MOL     -0.038793
     77 H30        -2.9320   -5.1590    2.1580 h1        1 MOL      0.034488
     78 H31        -1.5110   -5.5430    0.3120 h1        1 MOL     -0.138207
     79 H32        -2.8180   -3.8090   -0.9230 ho        1 MOL      0.318470
     80 H33        -4.2780   -6.6410    0.2330 hc        1 MOL      0.105180
     81 H34        -2.8820   -7.3340   -0.6820 hc        1 MOL      0.105180
     82 H35        -2.8930   -7.2820    1.1280 hc        1 MOL      0.105180
     83 N9         -0.5460   -3.8230    2.1070 n         1 MOL     -0.568107
     84 C26         0.6720   -3.0470    2.0240 c3        1 MOL      0.149279
     85 C27         1.3500   -3.2730    0.6880 c         1 MOL      0.610744
     86 O15         1.4600   -4.3870    0.1950 o         1 MOL     -0.572418
     87 C28         1.6040   -3.1390    3.2720 c3        1 MOL     -0.068885
     88 C29         1.2030   -1.9990    4.2170 c3        1 MOL      0.034415
     89 C30         3.1410   -3.0500    2.9370 c3        1 MOL     -0.146262
     90 C31         1.8580   -2.1610    5.6020 c3        1 MOL     -0.040163
     91 H36        -0.5550   -4.8130    2.3290 hn        1 MOL      0.279179
     92 H37         0.3620   -2.0090    2.0030 h1        1 MOL      0.049398
     93 H38         1.5980   -4.1110    3.7830 hc        1 MOL      0.057760
     94 H39         0.1220   -2.0030    4.3600 hc        1 MOL     -0.007094
     95 H40         1.3900   -1.0010    3.8220 hc        1 MOL     -0.007094
     96 H41         3.4220   -3.9720    2.4210 hc        1 MOL      0.041965
     97 H42         3.3890   -2.0890    2.4840 hc        1 MOL      0.041965
     98 H43         3.7910   -3.1780    3.8000 hc        1 MOL      0.041965
     99 H44         2.9320   -1.9720    5.6080 hc        1 MOL      0.002020
    100 H45         1.4430   -1.5020    6.3580 hc        1 MOL      0.002020
    101 H46         1.6520   -3.1730    5.9590 hc        1 MOL      0.002020
    102 N10         1.7630   -2.1120    0.1290 n         1 MOL     -0.454253
    103 C32         2.6590   -2.1560   -1.0110 c3        1 MOL      0.150159
    104 C33         4.0380   -1.6590   -0.7570 c         1 MOL      0.332770
    105 O16         4.3920   -1.2050    0.3230 o         1 MOL     -0.384796
    106 C34         1.9770   -1.2640   -2.0500 c3        1 MOL     -0.084700
    107 C35         0.4620   -1.4220   -2.3840 c         1 MOL      0.671391
    108 O17        -0.4180   -1.1920   -1.5560 o         1 MOL     -0.665674
    109 O18         0.2410   -1.9080   -3.5630 o         1 MOL     -0.665674
    110 H47         1.5120   -1.2240    0.5380 hn        1 MOL      0.228841
    111 H48         2.7460   -3.1420   -1.4710 h1        1 MOL      0.064389
    112 H49         2.5420   -1.3670   -2.9720 hc        1 MOL      0.002455
    113 H50         2.0960   -0.2170   -1.7570 hc        1 MOL      0.002455
    114 N11         4.9320   -1.6580   -1.7500 n         1 MOL     -0.543694
    115 C36         6.3950   -1.4280   -1.4410 c3        1 MOL      0.290351
    116 C37         6.7780   -0.0110   -1.1330 c         1 MOL      0.329327
    117 O19         7.5450    0.2130   -0.2040 o         1 MOL     -0.458609
    118 C38         7.3160   -2.1050   -2.5010 c3        1 MOL     -0.320521
    119 C39         8.8250   -1.8100   -2.2170 ca        1 MOL      0.140301
    120 C40         9.5970   -2.5810   -1.3460 ca        1 MOL     -0.167508
    121 C41         9.4660   -0.7790   -2.9000 ca        1 MOL     -0.167508
    122 C42        10.9330   -2.2480   -1.0210 ca        1 MOL     -0.144455
    123 C43        10.8020   -0.5170   -2.7710 ca        1 MOL     -0.144455
    124 C44        11.5600   -1.2050   -1.7850 ca        1 MOL     -0.063313
    125 H51         4.6310   -2.0690   -2.6220 hn        1 MOL      0.319696
    126 H52         6.7640   -2.0210   -0.5960 h1        1 MOL      0.083854
    127 H53         7.1420   -1.8340   -3.5480 hc        1 MOL      0.088830
    128 H54         7.3470   -3.1930   -2.4030 hc        1 MOL      0.088830
    129 H55         9.1690   -3.4310   -0.8370 ha        1 MOL      0.121341
    130 H56         8.9730   -0.1590   -3.6340 ha        1 MOL      0.121341
    131 H57        11.3920   -2.8010   -0.2210 ha        1 MOL      0.124268
    132 H58        11.2400    0.2400   -3.3950 ha        1 MOL      0.124268
    133 H59        12.6070   -0.9840   -1.8620 ha        1 MOL      0.080187
    134 N12         6.2090    0.9760   -1.9090 n         1 MOL     -0.071675
    135 C45         6.3510    2.3310   -1.4050 c3        1 MOL      0.122484
    136 C46         5.7470    2.6160    0.0380 c         1 MOL      0.192999
    137 O20         6.3000    3.5140    0.7070 o         1 MOL     -0.465013
    138 C47         5.6970    3.2120   -2.4140 c3        1 MOL      0.029709
    139 C48         5.8650    2.4280   -3.7600 c3        1 MOL     -0.160488
    140 C49         5.6630    1.0010   -3.3070 c3        1 MOL      0.027338
    141 H60         7.4250    2.4990   -1.3770 h1        1 MOL      0.025626
    142 H61         4.6540    3.4750   -2.1980 hc        1 MOL      0.027974
    143 H62         6.2310    4.1540   -2.4090 hc        1 MOL      0.027974
    144 H63         5.1070    2.6780   -4.5080 hc        1 MOL      0.051468
    145 H64         6.8830    2.5190   -4.1380 hc        1 MOL      0.051468
    146 H65         4.5950    0.8040   -3.2120 h1        1 MOL      0.037592
    147 H66         6.1530    0.2750   -3.9590 h1        1 MOL      0.037592
    148 N13         4.6160    1.9540    0.4730 n         1 MOL     -0.092537
    149 C50         4.0660    1.9350    1.8740 c3        1 MOL     -0.279741
    150 C51         5.0420    1.1900    2.8910 c         1 MOL      0.519765
    151 O21         5.0850    1.5310    4.0610 o         1 MOL     -0.570805
    152 C52         2.6170    1.4020    1.8940 c3        1 MOL     -0.022088
    153 C53         1.7530    2.0110    0.7540 c3        1 MOL      0.049271
    154 C54         0.3690    1.3930    0.8680 c         1 MOL      0.513894
    155 O22         0.1690    0.2230    1.2850 o         1 MOL     -0.672030
    156 O23        -0.5740    2.0030    0.2900 o         1 MOL     -0.672030
    157 H67         4.1560    1.4000   -0.2480 hn        1 MOL      0.171929
    158 H68         4.0190    2.9890    2.1590 h1        1 MOL      0.151783
    159 H69         2.2130    1.6840    2.8630 hc        1 MOL      0.073001
    160 H70         2.7130    0.3390    1.7090 hc        1 MOL      0.073001
    161 H71         2.2810    1.8800   -0.1860 hc        1 MOL      0.026248
    162 H72         1.5880    3.0870    0.7680 hc        1 MOL      0.026248
    163 N14         5.8230    0.2340    2.4600 n         1 MOL      0.003220
    164 C55         6.7680   -0.5590    3.1900 c3        1 MOL     -0.206893
    165 H73         6.3670   -0.7820    4.1790 h1        1 MOL      0.076600
    166 H74         6.9520   -1.4910    2.6550 h1        1 MOL      0.076600
    167 H75         7.7030   -0.0080    3.2930 h1        1 MOL      0.076600
    168 H76         5.5540   -0.1610    1.5660 hn        1 MOL      0.025457
    169 Ca1        -2.1090   -0.0250    0.0240 Ca        1 MOL      1.646695
    170 O24        -4.5560   -0.6840    1.2060 oh        1 MOL     -0.687340
    171 H77        -4.3460   -0.8910    2.1190 ho        1 MOL      0.351851
    172 H78        -5.1220    0.0870    1.2650 ho        1 MOL      0.351851
    173 O25        -1.9160   -0.0600    2.8100 oh        1 MOL     -0.687340
    174 H79        -0.9940   -0.1470    2.5740 ho        1 MOL      0.351851
    175 H80        -1.9690   -0.3790    3.7120 ho        1 MOL      0.351851
@<TRIPOS>BOND
     1    1    2 1   
     2    1    4 1   
     3    1    5 1   
     4    1    6 1   
     5    2    3 2   
     6    2    7 1   
     7    7    8 1   
     8    7   15 1   
     9    8    9 1   
    10    8   11 1   
    11    8   16 1   
    12    9   10 2   
    13    9   19 1   
    14   11   12 1   
    15   11   17 1   
    16   11   18 1   
    17   12   13 1   
    18   12   14 1   
    19   19   20 1   
    20   19   24 1   
    21   20   21 1   
    22   20   23 1   
    23   20   25 1   
    24   21   22 2   
    25   21   29 1   
    26   23   26 1   
    27   23   27 1   
    28   23   28 1   
    29   29   30 1   
    30   29   37 1   
    31   30   31 1   
    32   30   33 1   
    33   30   38 1   
    34   31   32 2   
    35   31   41 1   
    36   33   34 1   
    37   33   39 1   
    38   33   40 1   
    39   34   35 1   
    40   34   36 1   
    41   41   42 1   
    42   41   45 1   
    43   42   43 1   
    44   42   46 1   
    45   42   47 1   
    46   43   44 2   
    47   43   48 1   
    48   48   49 1   
    49   48   56 1   
    50   49   50 1   
    51   49   52 1   
    52   49   57 1   
    53   50   51 2   
    54   50   62 1   
    55   52   53 1   
    56   52   58 1   
    57   52   59 1   
    58   53   54 1   
    59   53   55 2   
    60   54   60 1   
    61   54   61 1   
    62   62   63 1   
    63   62   66 1   
    64   63   64 1   
    65   63   67 1   
    66   63   68 1   
    67   64   65 2   
    68   64   69 1   
    69   69   70 1   
    70   69   76 1   
    71   70   71 1   
    72   70   73 1   
    73   70   77 1   
    74   71   72 2   
    75   71   83 1   
    76   73   74 1   
    77   73   75 1   
    78   73   78 1   
    79   74   80 1   
    80   74   81 1   
    81   74   82 1   
    82   75   79 1   
    83   83   84 1   
    84   83   91 1   
    85   84   85 1   
    86   84   87 1   
    87   84   92 1   
    88   85   86 2   
    89   85  102 1   
    90   87   88 1   
    91   87   89 1   
    92   87   93 1   
    93   88   90 1   
    94   88   94 1   
    95   88   95 1   
    96   89   96 1   
    97   89   97 1   
    98   89   98 1   
    99   90   99 1   
   100   90  100 1   
   101   90  101 1   
   102  102  103 1   
   103  102  110 1   
   104  103  104 1   
   105  103  106 1   
   106  103  111 1   
   107  104  105 2   
   108  104  114 1   
   109  106  107 1   
   110  106  112 1   
   111  106  113 1   
   112  107  108 1   
   113  107  109 1   
   114  114  115 1   
   115  114  125 1   
   116  115  116 1   
   117  115  118 1   
   118  115  126 1   
   119  116  117 2   
   120  116  134 1   
   121  118  119 1   
   122  118  127 1   
   123  118  128 1   
   124  119  120 ar  
   125  119  121 ar  
   126  120  122 ar  
   127  120  129 1   
   128  121  123 ar  
   129  121  130 1   
   130  122  124 ar  
   131  122  131 1   
   132  123  124 ar  
   133  123  132 1   
   134  124  133 1   
   135  134  135 1   
   136  134  140 1   
   137  135  136 1   
   138  135  138 1   
   139  135  141 1   
   140  136  137 2   
   141  136  148 1   
   142  138  139 1   
   143  138  142 1   
   144  138  143 1   
   145  139  140 1   
   146  139  144 1   
   147  139  145 1   
   148  140  146 1   
   149  140  147 1   
   150  148  149 1   
   151  148  157 1   
   152  149  150 1   
   153  149  152 1   
   154  149  158 1   
   155  150  151 2   
   156  150  163 1   
   157  152  153 1   
   158  152  159 1   
   159  152  160 1   
   160  153  154 1   
   161  153  161 1   
   162  153  162 1   
   163  154  155 1   
   164  154  156 1   
   165  163  164 1   
   166  163  168 1   
   167  164  165 1   
   168  164  166 1   
   169  164  167 1   
   170  170  171 1   
   171  170  172 1   
   172  173  174 1   
   173  173  175 1   
@<TRIPOS>SUBSTRUCTURE
     1 MOL         1 TEMP              0 ****  ****    0 ROOT
