@<TRIPOS>MOLECULE
MOL
  182   178     1     0     0
SMALL
resp


@<TRIPOS>ATOM
      1 C1         -1.1260   -2.5780    6.0760 c3        1 MOL     -0.338987
      2 C2         -0.6770   -2.9260    4.5650 c         1 MOL      0.656738
      3 O1         -1.6030   -3.1200    3.7570 o         1 MOL     -0.596214
      4 H1         -0.6310   -3.2590    6.7680 hc        1 MOL      0.089294
      5 H2         -0.8440   -1.5520    6.3130 hc        1 MOL      0.089294
      6 H3         -2.2070   -2.6890    6.1690 hc        1 MOL      0.089294
      7 N1          0.5520   -2.9510    4.1420 n         1 MOL     -0.541025
      8 C3          1.0850   -2.6630    2.8410 c3        1 MOL      0.110535
      9 C4          1.3140   -3.9060    1.9810 c         1 MOL      0.579145
     10 O2          2.0950   -4.8410    2.4500 o         1 MOL     -0.573476
     11 C5          2.2960   -1.7920    3.1150 c3        1 MOL     -0.169241
     12 C6          2.9120   -1.2230    1.8360 c         1 MOL      0.888212
     13 O3          2.3740   -1.3720    0.7590 o         1 MOL     -0.835447
     14 O4          4.0340   -0.5800    1.9350 o         1 MOL     -0.835447
     15 H4          1.2190   -2.9520    4.9060 hn        1 MOL      0.293758
     16 H5          0.3170   -2.0430    2.4020 h1        1 MOL     -0.009403
     17 H6          3.0820   -2.3270    3.6530 hc        1 MOL      0.042321
     18 H7          1.9490   -0.9480    3.7070 hc        1 MOL      0.042321
     19 N2          0.5930   -4.0760    0.8850 n         1 MOL     -0.249439
     20 C7          0.6560   -5.2990    0.0940 c3        1 MOL     -0.224158
     21 C8          2.0420   -5.6370   -0.5110 c         1 MOL      0.495943
     22 O5          2.3540   -6.7950   -0.8710 o         1 MOL     -0.566616
     23 C9         -0.4550   -5.3790   -0.9990 c3        1 MOL     -0.012074
     24 C10        -1.8890   -5.6670   -0.4090 c3        1 MOL      0.102394
     25 C11        -3.0410   -5.8250   -1.3510 c3        1 MOL     -0.115759
     26 C12        -4.3480   -6.0200   -0.5860 c3        1 MOL      0.162913
     27 N3         -5.5590   -6.1840   -1.4520 n4        1 MOL     -0.396389
     28 H8          0.0730   -3.2760    0.5260 hn        1 MOL      0.213091
     29 H9          0.3560   -6.0410    0.8330 h1        1 MOL      0.127107
     30 H10        -0.2120   -6.2110   -1.6620 hc        1 MOL      0.038701
     31 H11        -0.3600   -4.4950   -1.6260 hc        1 MOL      0.038701
     32 H12        -2.1080   -4.7620    0.1610 hc        1 MOL      0.006959
     33 H13        -1.8580   -6.5460    0.2280 hc        1 MOL      0.006959
     34 H14        -2.9040   -6.6020   -2.1020 hc        1 MOL      0.023286
     35 H15        -3.0170   -4.9040   -1.9320 hc        1 MOL      0.023286
     36 H16        -4.5160   -5.1830    0.0920 hx        1 MOL      0.058702
     37 H17        -4.2290   -6.8820    0.0650 hx        1 MOL      0.058702
     38 H18        -6.4680   -6.1650   -1.0110 hn        1 MOL      0.331682
     39 H19        -5.5840   -5.4030   -2.0900 hn        1 MOL      0.331682
     40 H20        -5.5490   -7.0220   -2.0100 hn        1 MOL      0.331682
     41 N4          2.8710   -4.6610   -0.8470 n         1 MOL     -0.228753
     42 C13         4.2810   -4.7530   -1.4290 c3        1 MOL     -0.005185
     43 C14         5.4280   -4.1980   -0.5510 c         1 MOL      0.425957
     44 O6          6.5990   -4.3800   -0.9300 o         1 MOL     -0.514078
     45 C15         4.3130   -4.1200   -2.8860 c3        1 MOL     -0.350565
     46 C16         3.8790   -2.6910   -2.9340 c         1 MOL      0.832705
     47 O7          4.0580   -2.0980   -4.0230 o         1 MOL     -0.733875
     48 O8          3.4170   -2.1050   -1.9590 o         1 MOL     -0.733875
     49 H21         2.5190   -3.7100   -0.7820 hn        1 MOL      0.192120
     50 H22         4.4120   -5.8230   -1.5610 h1        1 MOL      0.134751
     51 H23         3.7320   -4.7810   -3.5310 hc        1 MOL      0.109959
     52 H24         5.3260   -4.1850   -3.2960 hc        1 MOL      0.109959
     53 N5          5.1380   -3.5910    0.6230 n         1 MOL     -0.270822
     54 C17         6.1820   -2.9950    1.5060 c3        1 MOL     -0.085304
     55 C18         6.8540   -1.7250    0.9190 c         1 MOL      0.468594
     56 O9          8.0010   -1.4080    1.2740 o         1 MOL     -0.543045
     57 H25         4.1770   -3.3480    0.8100 hn        1 MOL      0.154797
     58 H26         7.0170   -3.6880    1.6610 h1        1 MOL      0.101177
     59 H27         5.7670   -2.8720    2.4970 h1        1 MOL      0.101177
     60 N6          6.1410   -0.9800    0.0040 n         1 MOL     -0.297026
     61 C19         6.8310    0.0960   -0.8190 c3        1 MOL     -0.100294
     62 C20         6.8080    1.4380   -0.0540 c         1 MOL      0.355592
     63 O10         7.3880    2.4150   -0.5840 o         1 MOL     -0.504817
     64 C21         6.2210    0.1370   -2.1820 c3        1 MOL     -0.076001
     65 C22         4.8380    0.8870   -2.2400 c         1 MOL      0.551489
     66 N7          4.7490    1.9630   -2.9590 n         1 MOL     -0.685047
     67 O11         3.9050    0.6840   -1.4260 o         1 MOL     -0.692170
     68 H28         5.1320   -1.0690   -0.0510 hn        1 MOL      0.397815
     69 H29         7.8870   -0.1790   -0.8480 h1        1 MOL      0.153332
     70 H30         6.1170   -0.8460   -2.6420 hc        1 MOL      0.075242
     71 H31         6.9280    0.6300   -2.8430 hc        1 MOL      0.075242
     72 H32         5.5200    2.3180   -3.5150 hn        1 MOL      0.346920
     73 H33         3.8970    2.4960   -3.0650 hn        1 MOL      0.346920
     74 N8          6.0390    1.4790    1.0640 n         1 MOL     -0.158847
     75 C23         5.8600    2.5870    1.9500 c3        1 MOL     -0.239752
     76 C24         4.4970    3.2320    1.9900 c         1 MOL      0.498965
     77 O12         4.3440    4.1310    2.8260 o         1 MOL     -0.567236
     78 H34         5.5400    0.6180    1.2440 hn        1 MOL      0.263515
     79 H35         6.5540    3.4110    1.7420 h1        1 MOL      0.130887
     80 H36         6.0970    2.2250    2.9530 h1        1 MOL      0.130887
     81 N9          3.6010    2.8590    1.0790 n         1 MOL     -0.057237
     82 C25         2.2980    3.5500    1.0610 c3        1 MOL      0.080193
     83 C26         1.1200    2.5950    0.8400 c         1 MOL      0.196834
     84 O13         1.2570    1.5220    0.3030 o         1 MOL     -0.484671
     85 C27         2.1680    4.4420   -0.2450 c3        1 MOL      0.223978
     86 C28         3.1100    5.5960   -0.3260 ca        1 MOL     -0.094653
     87 C29         4.5230    5.4060   -0.6100 ca        1 MOL     -0.140901
     88 C30         2.6620    6.8690    0.0290 ca        1 MOL     -0.140901
     89 C31         5.4280    6.5190   -0.6130 ca        1 MOL     -0.270441
     90 C32         3.5720    7.9920    0.0740 ca        1 MOL     -0.270441
     91 C33         4.9210    7.7570   -0.2290 ca        1 MOL      0.393164
     92 O14         5.8260    8.7630   -0.2820 oh        1 MOL     -0.500654
     93 H37         3.6510    2.0130    0.5320 hn        1 MOL      0.157727
     94 H38         1.9840    4.0860    1.9640 h1        1 MOL      0.016791
     95 H39         1.1750    4.8770   -0.2050 hc        1 MOL     -0.074900
     96 H40         2.2370    3.7880   -1.1140 hc        1 MOL     -0.074900
     97 H41         4.9810    4.4650   -0.8480 ha        1 MOL      0.128318
     98 H42         1.6110    6.9060    0.2810 ha        1 MOL      0.128318
     99 H43         6.5040    6.4230   -0.7130 ha        1 MOL      0.147454
    100 H44         3.2650    8.9770    0.3970 ha        1 MOL      0.147454
    101 H45         5.6210    9.5990    0.1280 ho        1 MOL      0.361908
    102 N10        -0.0910    3.0750    1.1720 n         1 MOL      0.016718
    103 C34        -1.4150    2.4910    0.9220 c3        1 MOL     -0.668534
    104 C35        -2.4870    3.4190    0.2990 c         1 MOL      0.642329
    105 O15        -2.7640    4.5160    0.8100 o         1 MOL     -0.536818
    106 C36        -1.9880    1.6570    2.1450 c3        1 MOL      0.034757
    107 C37        -2.4400    2.6510    3.2750 c3        1 MOL     -0.031067
    108 C38        -1.0920    0.5180    2.6190 c3        1 MOL     -0.392932
    109 C39        -2.8800    1.9430    4.6340 c3        1 MOL     -0.284954
    110 H46        -0.1090    3.9230    1.7380 hn        1 MOL      0.252154
    111 H47        -1.2360    1.7100    0.1750 h1        1 MOL      0.299745
    112 H48        -2.8590    1.0720    1.8440 hc        1 MOL      0.075825
    113 H49        -3.3650    3.0830    2.9040 hc        1 MOL      0.057630
    114 H50        -1.6680    3.3870    3.5150 hc        1 MOL      0.057630
    115 H51        -0.2490    0.9360    3.1680 hc        1 MOL      0.157440
    116 H52        -1.7450   -0.1770    3.1480 hc        1 MOL      0.157440
    117 H53        -0.6990    0.0020    1.7430 hc        1 MOL      0.157440
    118 H54        -3.3000    2.7420    5.2430 hc        1 MOL      0.077030
    119 H55        -3.5750    1.1220    4.4790 hc        1 MOL      0.077030
    120 H56        -1.9740    1.5320    5.0970 hc        1 MOL      0.077030
    121 N11        -3.0980    2.9880   -0.7870 n         1 MOL     -0.422498
    122 C40        -4.3900    3.5830   -1.2470 c3        1 MOL     -0.035721
    123 C41        -5.6280    3.1680   -0.4710 c         1 MOL      0.519343
    124 O16        -5.5630    2.1950    0.2640 o         1 MOL     -0.381158
    125 C42        -4.6000    3.4020   -2.7460 c3        1 MOL     -0.090725
    126 O17        -4.8180    1.9840   -3.0730 oh        1 MOL     -0.549350
    127 H57        -2.7240    2.1720   -1.2340 hn        1 MOL      0.332337
    128 H58        -4.3320    4.6590   -1.0950 h1        1 MOL      0.080046
    129 H59        -3.7310    3.6320   -3.3650 h1        1 MOL      0.111121
    130 H60        -5.4470    4.0080   -3.0780 h1        1 MOL      0.111121
    131 H61        -3.9230    1.6800   -3.2290 ho        1 MOL      0.400647
    132 N12        -6.7950    3.7150   -0.7160 n         1 MOL     -0.342156
    133 C43        -8.0430    3.4460   -0.0430 c3        1 MOL      0.034302
    134 C44        -8.5590    2.0320   -0.1900 c         1 MOL      0.513560
    135 O18        -9.0080    1.4870    0.8450 o         1 MOL     -0.505560
    136 C45        -9.0520    4.4350   -0.5540 c3        1 MOL     -0.275646
    137 H62        -6.8460    4.5720   -1.2440 hn        1 MOL      0.257236
    138 H63        -7.8470    3.6780    1.0130 h1        1 MOL      0.104419
    139 H64        -9.2000    4.3130   -1.6280 hc        1 MOL      0.088323
    140 H65        -9.9970    4.1120   -0.1140 hc        1 MOL      0.088323
    141 H66        -8.8030    5.4760   -0.3360 hc        1 MOL      0.088323
    142 N13        -8.3980    1.4120   -1.3950 n         1 MOL     -0.408986
    143 C46        -8.6290   -0.0230   -1.6990 c3        1 MOL      0.078659
    144 C47        -7.6560   -0.9380   -1.0560 c         1 MOL      0.422534
    145 O19        -8.0230   -2.0670   -0.8020 o         1 MOL     -0.539654
    146 C48        -8.5750   -0.2100   -3.2540 c3        1 MOL     -0.244487
    147 H67        -8.0000    2.0070   -2.1100 hn        1 MOL      0.296183
    148 H68        -9.6520   -0.2190   -1.3760 h1        1 MOL      0.100480
    149 H69        -7.5670    0.0490   -3.5810 hc        1 MOL      0.076354
    150 H70        -8.7840   -1.2440   -3.5250 hc        1 MOL      0.076354
    151 H71        -9.2800    0.5290   -3.6650 hc        1 MOL      0.076354
    152 N14        -6.4100   -0.5440   -0.9350 n         1 MOL     -0.048714
    153 C49        -5.4680   -1.3460   -0.2540 c3        1 MOL     -0.310284
    154 C50        -5.6310   -1.3390    1.2800 c         1 MOL      0.487832
    155 O20        -5.4960   -2.2990    2.1000 o         1 MOL     -0.549631
    156 C51        -4.0540   -0.7790   -0.6570 c3        1 MOL     -0.118968
    157 C52        -2.8220   -1.6140   -0.1820 c3        1 MOL     -0.037400
    158 C53        -1.4260   -1.1740   -0.6670 c         1 MOL      0.577190
    159 O21        -1.2320   -0.0870   -1.2020 o         1 MOL     -0.649926
    160 O22        -0.4400   -1.9310   -0.4770 o         1 MOL     -0.649926
    161 H72        -6.2510    0.4400   -1.1040 hn        1 MOL      0.094118
    162 H73        -5.5450   -2.3600   -0.6580 h1        1 MOL      0.141813
    163 H74        -3.9250    0.2730   -0.4100 hc        1 MOL      0.015945
    164 H75        -4.0600   -0.8640   -1.7460 hc        1 MOL      0.015945
    165 H76        -2.9610   -2.6580   -0.4510 hc        1 MOL      0.058272
    166 H77        -2.8270   -1.5700    0.9100 hc        1 MOL      0.058272
    167 N15        -6.1480   -0.1990    1.7500 n         1 MOL      0.084451
    168 C54        -6.5770    0.0310    3.0760 c3        1 MOL     -0.387840
    169 H78        -6.0620   -0.6550    3.7490 h1        1 MOL      0.135102
    170 H79        -6.3460    1.0580    3.3600 h1        1 MOL      0.135102
    171 H80        -7.6520   -0.1330    3.1450 h1        1 MOL      0.135102
    172 H81        -6.3840    0.4970    1.0500 hn        1 MOL      0.034246
    173 Ca1         1.5010   -0.3410   -1.6170 Ca        1 MOL      1.785537
    174 O23         0.0240   -1.4960   -3.6920 oh        1 MOL     -0.839606
    175 H82        -0.9030   -1.2940   -3.6250 ho        1 MOL      0.402305
    176 H83         0.1930   -1.6250   -4.6200 ho        1 MOL      0.402305
    177 O24         0.6820    1.8110   -2.8750 oh        1 MOL     -0.839606
    178 H84         1.4830    2.1280   -3.2900 ho        1 MOL      0.402305
    179 H85         0.2290    2.6010   -2.6050 ho        1 MOL      0.402305
    180 O25         2.4740   -0.0360   -4.0640 oh        1 MOL     -0.839606
    181 H86         2.4940    0.4060   -4.9230 ho        1 MOL      0.402305
    182 H87         2.9390   -0.8530   -4.1980 ho        1 MOL      0.402305
@<TRIPOS>BOND
     1    1    2 1   
     2    1    4 1   
     3    1    5 1   
     4    1    6 1   
     5    2    3 2   
     6    2    7 1   
     7    7    8 1   
     8    7   15 1   
     9    8    9 1   
    10    8   11 1   
    11    8   16 1   
    12    9   10 2   
    13    9   19 1   
    14   11   12 1   
    15   11   17 1   
    16   11   18 1   
    17   12   13 1   
    18   12   14 1   
    19   19   20 1   
    20   19   28 1   
    21   20   21 1   
    22   20   23 1   
    23   20   29 1   
    24   21   22 2   
    25   21   41 1   
    26   23   24 1   
    27   23   30 1   
    28   23   31 1   
    29   24   25 1   
    30   24   32 1   
    31   24   33 1   
    32   25   26 1   
    33   25   34 1   
    34   25   35 1   
    35   26   27 1   
    36   26   36 1   
    37   26   37 1   
    38   27   38 1   
    39   27   39 1   
    40   27   40 1   
    41   41   42 1   
    42   41   49 1   
    43   42   43 1   
    44   42   45 1   
    45   42   50 1   
    46   43   44 2   
    47   43   53 1   
    48   45   46 1   
    49   45   51 1   
    50   45   52 1   
    51   46   47 1   
    52   46   48 1   
    53   53   54 1   
    54   53   57 1   
    55   54   55 1   
    56   54   58 1   
    57   54   59 1   
    58   55   56 2   
    59   55   60 1   
    60   60   61 1   
    61   60   68 1   
    62   61   62 1   
    63   61   64 1   
    64   61   69 1   
    65   62   63 2   
    66   62   74 1   
    67   64   65 1   
    68   64   70 1   
    69   64   71 1   
    70   65   66 1   
    71   65   67 2   
    72   66   72 1   
    73   66   73 1   
    74   74   75 1   
    75   74   78 1   
    76   75   76 1   
    77   75   79 1   
    78   75   80 1   
    79   76   77 2   
    80   76   81 1   
    81   81   82 1   
    82   81   93 1   
    83   82   83 1   
    84   82   85 1   
    85   82   94 1   
    86   83   84 2   
    87   83  102 1   
    88   85   86 1   
    89   85   95 1   
    90   85   96 1   
    91   86   87 ar  
    92   86   88 ar  
    93   87   89 ar  
    94   87   97 1   
    95   88   90 ar  
    96   88   98 1   
    97   89   91 ar  
    98   89   99 1   
    99   90   91 ar  
   100   90  100 1   
   101   91   92 1   
   102   92  101 1   
   103  102  103 1   
   104  102  110 1   
   105  103  104 1   
   106  103  106 1   
   107  103  111 1   
   108  104  105 2   
   109  104  121 1   
   110  106  107 1   
   111  106  108 1   
   112  106  112 1   
   113  107  109 1   
   114  107  113 1   
   115  107  114 1   
   116  108  115 1   
   117  108  116 1   
   118  108  117 1   
   119  109  118 1   
   120  109  119 1   
   121  109  120 1   
   122  121  122 1   
   123  121  127 1   
   124  122  123 1   
   125  122  125 1   
   126  122  128 1   
   127  123  124 2   
   128  123  132 1   
   129  125  126 1   
   130  125  129 1   
   131  125  130 1   
   132  126  131 1   
   133  132  133 1   
   134  132  137 1   
   135  133  134 1   
   136  133  136 1   
   137  133  138 1   
   138  134  135 2   
   139  134  142 1   
   140  136  139 1   
   141  136  140 1   
   142  136  141 1   
   143  142  143 1   
   144  142  147 1   
   145  143  144 1   
   146  143  146 1   
   147  143  148 1   
   148  144  145 2   
   149  144  152 1   
   150  146  149 1   
   151  146  150 1   
   152  146  151 1   
   153  152  153 1   
   154  152  161 1   
   155  153  154 1   
   156  153  156 1   
   157  153  162 1   
   158  154  155 2   
   159  154  167 1   
   160  156  157 1   
   161  156  163 1   
   162  156  164 1   
   163  157  158 1   
   164  157  165 1   
   165  157  166 1   
   166  158  159 1   
   167  158  160 1   
   168  167  168 1   
   169  167  172 1   
   170  168  169 1   
   171  168  170 1   
   172  168  171 1   
   173  174  175 1   
   174  174  176 1   
   175  177  178 1   
   176  177  179 1   
   177  180  181 1   
   178  180  182 1   
@<TRIPOS>SUBSTRUCTURE
     1 MOL         1 TEMP              0 ****  ****    0 ROOT
