@<TRIPOS>MOLECULE
MOL
  189   185     1     0     0
SMALL
resp


@<TRIPOS>ATOM
      1 C1          0.9050   -3.8040    6.2250 c3        1 MOL     -0.508240
      2 C2          0.9910   -3.3620    4.7470 c         1 MOL      0.757568
      3 O1          0.7780   -2.1890    4.4250 o         1 MOL     -0.611225
      4 H1          0.9930   -4.8890    6.2850 hc        1 MOL      0.132176
      5 H2          1.7140   -3.3420    6.7910 hc        1 MOL      0.132176
      6 H3         -0.0530   -3.4940    6.6420 hc        1 MOL      0.132176
      7 N1          1.5180   -4.2280    3.8710 n         1 MOL     -0.654601
      8 C3          1.9630   -3.8260    2.5310 c3        1 MOL      0.285345
      9 C4          1.8220   -5.0220    1.6150 c         1 MOL      0.381876
     10 O2          2.1850   -6.1490    1.9740 o         1 MOL     -0.567903
     11 C5          3.4900   -3.4860    2.6940 c3        1 MOL     -0.258981
     12 C6          4.0420   -2.6360    1.5020 c         1 MOL      0.794721
     13 O3          3.4020   -2.3720    0.4350 o         1 MOL     -0.703747
     14 O4          5.1610   -2.1130    1.7550 o         1 MOL     -0.703747
     15 H4          1.8230   -5.1460    4.1600 hn        1 MOL      0.319984
     16 H5          1.2800   -3.0260    2.2780 h1        1 MOL      0.130985
     17 H6          4.0740   -4.4100    2.7250 hc        1 MOL      0.061849
     18 H7          3.6430   -2.9060    3.6000 hc        1 MOL      0.061849
     19 N2          1.3940   -4.6590    0.3980 n         1 MOL     -0.171765
     20 C7          1.1280   -5.5810   -0.7610 c3        1 MOL     -0.045016
     21 C8          2.0180   -5.2210   -2.0320 c         1 MOL      0.447379
     22 O5          2.0070   -5.8860   -3.0410 o         1 MOL     -0.541297
     23 C9         -0.3180   -5.5350   -1.1650 c3        1 MOL      0.507616
     24 C10        -1.3650   -5.6470   -0.0140 c3        1 MOL     -0.098593
     25 C11        -0.6810   -6.5380   -2.2950 c3        1 MOL     -0.413727
     26 C12        -2.7870   -5.1750   -0.2540 c3        1 MOL     -0.065100
     27 H8          0.9840   -3.7390    0.3400 hn        1 MOL      0.071951
     28 H9          1.3770   -6.6100   -0.5330 h1        1 MOL      0.041651
     29 H10        -0.4330   -4.5150   -1.5380 hc        1 MOL     -0.045015
     30 H11        -0.9460   -5.0610    0.8060 hc        1 MOL     -0.041713
     31 H12        -1.2210   -6.6930    0.2530 hc        1 MOL     -0.041713
     32 H13        -1.7370   -6.8160   -2.2740 hc        1 MOL      0.082068
     33 H14        -0.4250   -6.1170   -3.2640 hc        1 MOL      0.082068
     34 H15        -0.0750   -7.4310   -2.1770 hc        1 MOL      0.082068
     35 H16        -3.3470   -5.1960    0.6790 hc        1 MOL      0.032833
     36 H17        -2.9370   -4.1780   -0.6560 hc        1 MOL      0.032833
     37 H18        -3.3110   -5.8830   -0.8920 hc        1 MOL      0.032833
     38 N3          2.7760   -4.1240   -1.9940 n         1 MOL     -0.315212
     39 C13         3.7120   -3.8050   -3.0380 c3        1 MOL      0.154152
     40 C14         5.0740   -3.2690   -2.6330 c         1 MOL      0.244204
     41 O6          6.0330   -3.2540   -3.4430 o         1 MOL     -0.546642
     42 C15         3.0610   -2.7840   -4.0270 c3        1 MOL     -0.329940
     43 C16         2.4990   -1.5400   -3.3410 c         1 MOL      0.771708
     44 O7          2.9640   -0.9980   -2.3500 o         1 MOL     -0.689674
     45 O8          1.4710   -1.0200   -3.7910 o         1 MOL     -0.689674
     46 H19         2.7170   -3.4960   -1.2110 hn        1 MOL      0.200422
     47 H20         3.9330   -4.6850   -3.6510 h1        1 MOL      0.073025
     48 H21         2.2190   -3.2540   -4.5340 hc        1 MOL      0.090295
     49 H22         3.8270   -2.4910   -4.7580 hc        1 MOL      0.090295
     50 N4          5.3020   -2.8550   -1.4210 n         1 MOL     -0.016928
     51 C17         6.5800   -2.3890   -1.0110 c3        1 MOL     -0.206475
     52 C18         7.0060   -1.0320   -1.6010 c         1 MOL      0.452424
     53 O9          8.2080   -0.7120   -1.5560 o         1 MOL     -0.601872
     54 H23         4.5940   -2.9880   -0.7170 hn        1 MOL      0.065033
     55 H24         7.3020   -3.1480   -1.3080 h1        1 MOL      0.109171
     56 H25         6.6960   -2.4030    0.0780 h1        1 MOL      0.109171
     57 N5          6.0640   -0.1690   -2.0130 n         1 MOL     -0.148797
     58 C19         6.3440    1.1550   -2.5290 c3        1 MOL      0.043638
     59 C20         6.7240    2.2330   -1.4360 c         1 MOL      0.418070
     60 O10         7.2190    3.3190   -1.7000 o         1 MOL     -0.556828
     61 C21         5.1940    1.8420   -3.3400 c3        1 MOL     -0.451204
     62 C22         3.8930    2.0280   -2.5700 c         1 MOL      0.922950
     63 O11         3.8910    1.6170   -1.3780 o         1 MOL     -0.730896
     64 O12         2.8790    2.5120   -3.1020 o         1 MOL     -0.730896
     65 H26         5.0800   -0.4020   -1.9910 hn        1 MOL      0.203198
     66 H27         7.2660    1.1360   -3.1130 h1        1 MOL      0.083383
     67 H28         5.0610    1.1630   -4.1790 hc        1 MOL      0.104475
     68 H29         5.5020    2.8580   -3.5710 hc        1 MOL      0.104475
     69 N6          6.6480    1.9770   -0.1290 n         1 MOL     -0.235077
     70 C23         6.9390    2.9170    1.0110 c3        1 MOL     -0.095778
     71 C24         5.9040    3.9360    1.3990 c         1 MOL      0.566901
     72 O13         6.2350    4.8440    2.1230 o         1 MOL     -0.577098
     73 H30         6.3990    1.0480    0.1680 hn        1 MOL      0.215342
     74 H31         7.9250    3.3810    0.8950 h1        1 MOL      0.062907
     75 H32         7.0410    2.3070    1.9080 h1        1 MOL      0.062907
     76 N7          4.6870    3.7080    0.8540 n         1 MOL     -0.308368
     77 C25         3.4420    4.3990    1.3400 c3        1 MOL     -0.075067
     78 C26         2.3260    3.4180    1.5670 c         1 MOL      0.684752
     79 O14         2.2330    2.2680    1.0710 o         1 MOL     -0.672888
     80 C27         2.9910    5.4390    0.3330 c3        1 MOL     -0.035328
     81 C28         3.8660    6.5990    0.0470 c3        1 MOL     -0.146084
     82 C29         3.2100    7.7440   -0.7040 c         1 MOL      0.551246
     83 N8          3.1680    7.4910   -1.9950 n         1 MOL     -0.731653
     84 O15         2.8620    8.8530   -0.2320 o         1 MOL     -0.577048
     85 H33         4.4320    2.8350    0.4060 hn        1 MOL      0.176378
     86 H34         3.6320    4.8830    2.3110 h1        1 MOL      0.052995
     87 H35         2.0920    5.8720    0.7680 hc        1 MOL      0.055141
     88 H36         2.6520    4.9740   -0.5880 hc        1 MOL      0.055141
     89 H37         4.6130    6.2330   -0.6480 hc        1 MOL      0.083284
     90 H38         4.3570    7.0010    0.9320 hc        1 MOL      0.083284
     91 H39         3.5400    6.6480   -2.4020 hn        1 MOL      0.354008
     92 H40         2.6260    8.2010   -2.4810 hn        1 MOL      0.354008
     93 N9          1.3280    3.7930    2.3370 n         1 MOL     -0.490299
     94 C30         0.0770    2.9800    2.4860 c3        1 MOL      0.004784
     95 C31        -1.0060    3.3720    1.4860 c         1 MOL      0.501631
     96 O16        -1.4190    4.5520    1.4020 o         1 MOL     -0.604739
     97 C32        -0.3880    2.9320    3.9860 c3        1 MOL      0.124622
     98 C33        -1.8700    2.7280    4.2280 c3        1 MOL     -0.205800
     99 C34         0.3700    1.9580    4.8140 c3        1 MOL     -0.205800
    100 H41         1.2750    4.6570    2.8530 hn        1 MOL      0.279456
    101 H42         0.2390    1.9070    2.3170 h1        1 MOL      0.171836
    102 H43        -0.1980    3.8240    4.5720 hc        1 MOL     -0.003663
    103 H44        -1.9850    2.5420    5.2940 hc        1 MOL      0.043077
    104 H45        -2.3730    3.6620    3.9650 hc        1 MOL      0.043077
    105 H46        -2.2520    1.9250    3.5960 hc        1 MOL      0.043077
    106 H47         0.0330    2.0510    5.8450 hc        1 MOL      0.043077
    107 H48         0.2190    0.9060    4.5270 hc        1 MOL      0.043077
    108 H49         1.4310    2.1660    4.6960 hc        1 MOL      0.043077
    109 N10        -1.5050    2.4440    0.6910 n         1 MOL     -0.260448
    110 C35        -2.7260    2.5250   -0.1760 c3        1 MOL      0.338947
    111 C36        -4.0380    2.2220    0.5830 c         1 MOL      0.046121
    112 O17        -3.9780    1.6950    1.6550 o         1 MOL     -0.196467
    113 C37        -2.5550    1.6330   -1.4240 c3        1 MOL     -0.237248
    114 C38        -3.6370    1.8670   -2.5680 c         1 MOL      0.673497
    115 N11        -3.7090    2.9130   -3.2880 n         1 MOL     -0.749543
    116 O18        -4.5220    1.0920   -2.6910 o         1 MOL     -0.508604
    117 H50        -1.0960    1.5230    0.7940 hn        1 MOL      0.053766
    118 H51        -2.8270    3.5080   -0.6300 h1        1 MOL     -0.035567
    119 H52        -2.5890    0.5610   -1.2180 hc        1 MOL      0.081857
    120 H53        -1.5550    1.7710   -1.8410 hc        1 MOL      0.081857
    121 H54        -3.1210    3.7130   -3.1250 hn        1 MOL      0.339556
    122 H55        -4.5650    3.0210   -3.8050 hn        1 MOL      0.339556
    123 N12        -5.2080    2.6030    0.1040 n         1 MOL     -0.060587
    124 C39        -6.5110    2.2360    0.7510 c3        1 MOL     -0.020353
    125 C40        -6.7860    0.7060    0.8650 c         1 MOL      0.455660
    126 O19        -7.5030    0.2000    1.6740 o         1 MOL     -0.555188
    127 C41        -7.6970    3.0170    0.1280 c3        1 MOL     -0.080779
    128 C42        -7.6560    2.9490   -1.3770 ca        1 MOL     -0.022699
    129 C43        -8.4190    1.9440   -1.9930 ca        1 MOL     -0.069776
    130 C44        -7.0520    3.9180   -2.1180 ca        1 MOL     -0.069776
    131 C45        -8.5720    1.9850   -3.3520 ca        1 MOL     -0.400237
    132 C46        -7.0310    3.8460   -3.5340 ca        1 MOL     -0.400237
    133 C47        -7.8340    2.8550   -4.1790 ca        1 MOL      0.491809
    134 O20        -7.9560    2.8490   -5.5240 oh        1 MOL     -0.553585
    135 H56        -5.1590    3.3430   -0.5760 hn        1 MOL      0.122582
    136 H57        -6.4240    2.5380    1.8000 h1        1 MOL      0.051899
    137 H58        -7.6110    4.0660    0.4050 hc        1 MOL      0.042529
    138 H59        -8.6390    2.6460    0.5110 hc        1 MOL      0.042529
    139 H60        -8.8070    1.1280   -1.4040 ha        1 MOL      0.130060
    140 H61        -6.5300    4.7550   -1.6840 ha        1 MOL      0.130060
    141 H62        -9.1230    1.1970   -3.8440 ha        1 MOL      0.170997
    142 H63        -6.4850    4.5850   -4.1000 ha        1 MOL      0.170997
    143 H64        -8.6570    2.2710   -5.8270 ho        1 MOL      0.402701
    144 N13        -6.0900   -0.0170   -0.0070 n         1 MOL      0.059757
    145 C48        -6.0200   -1.4650    0.0370 c3        1 MOL     -0.566092
    146 C49        -5.2510   -2.0140    1.2550 c         1 MOL      0.721726
    147 O21        -5.3260   -3.2090    1.5370 o         1 MOL     -0.556977
    148 C50        -5.4170   -1.9980   -1.3310 c3        1 MOL      0.361338
    149 C51        -5.8240   -3.4610   -1.6380 c3        1 MOL     -0.180969
    150 C52        -5.5840   -3.9290   -3.0910 c         1 MOL      0.720199
    151 O22        -6.3570   -4.8520   -3.4620 o         1 MOL     -0.751185
    152 O23        -4.7730   -3.3320   -3.8380 o         1 MOL     -0.751185
    153 H65        -5.5620    0.4320   -0.7340 hn        1 MOL      0.085728
    154 H66        -7.0630   -1.7690   -0.0310 h1        1 MOL      0.172949
    155 H67        -4.3390   -1.8620   -1.3710 hc        1 MOL     -0.031781
    156 H68        -5.7790   -1.4000   -2.1630 hc        1 MOL     -0.031781
    157 H69        -6.9110   -3.5350   -1.6000 hc        1 MOL     -0.013472
    158 H70        -5.2850   -4.1530   -0.9750 hc        1 MOL     -0.013472
    159 N14        -4.4890   -1.1490    1.9620 n         1 MOL     -0.488775
    160 C53        -3.5040   -1.5930    2.9720 c3        1 MOL      0.009771
    161 C54        -3.8180   -0.9160    4.3130 c         1 MOL      0.463686
    162 O24        -3.6160   -1.4620    5.3710 o         1 MOL     -0.558920
    163 C55        -2.0760   -1.2560    2.4790 c3        1 MOL      0.111756
    164 C56        -1.6660   -1.7930    1.1120 c3        1 MOL     -0.271759
    165 C57        -0.3170   -1.2210    0.6180 c         1 MOL      0.561926
    166 O25         0.5200   -1.9380   -0.0060 o         1 MOL     -0.573325
    167 O26        -0.1060    0.0230    0.7710 o         1 MOL     -0.573325
    168 H71        -4.4100   -0.2630    1.4910 hn        1 MOL      0.174208
    169 H72        -3.6110   -2.6680    3.1480 h1        1 MOL      0.089740
    170 H73        -1.3900   -1.7540    3.1670 hc        1 MOL     -0.002865
    171 H74        -1.8690   -0.1920    2.5860 hc        1 MOL     -0.002865
    172 H75        -2.3620   -1.2830    0.4510 hc        1 MOL      0.116241
    173 H76        -1.8070   -2.8780    1.1620 hc        1 MOL      0.116241
    174 N15        -4.3300    0.3500    4.2350 n         1 MOL     -0.099039
    175 C58        -4.9860    1.0810    5.3390 c3        1 MOL     -0.122470
    176 H77        -4.6470    2.1170    5.3400 h1        1 MOL      0.055628
    177 H78        -6.0670    1.0520    5.2030 h1        1 MOL      0.055628
    178 H79        -4.7270    0.6140    6.2900 h1        1 MOL      0.055628
    179 H80        -4.3340    0.7280    3.2940 hn        1 MOL      0.062293
    180 Ca1         2.4450   -0.0340   -0.0800 Ca        1 MOL      1.652906
    181 O27         2.0500   -0.5540    2.6540 oh        1 MOL     -0.766788
    182 H81         1.4920   -1.0660    3.2360 ho        1 MOL      0.367719
    183 H82         2.6900   -0.1340    3.2430 ho        1 MOL      0.367719
    184 O28         4.6550    0.2760    1.4270 oh        1 MOL     -0.766788
    185 H83         4.9580   -0.6200    1.5540 ho        1 MOL      0.367719
    186 H84         4.5880    0.6420    2.3020 ho        1 MOL      0.367719
    187 O29         0.9210    0.9950   -2.1800 oh        1 MOL     -0.766788
    188 H85         1.4600    1.7640   -2.3760 ho        1 MOL      0.367719
    189 H86         1.0540    0.4190   -2.9210 ho        1 MOL      0.367719
@<TRIPOS>BOND
     1    1    2 1   
     2    1    4 1   
     3    1    5 1   
     4    1    6 1   
     5    2    3 2   
     6    2    7 1   
     7    7    8 1   
     8    7   15 1   
     9    8    9 1   
    10    8   11 1   
    11    8   16 1   
    12    9   10 2   
    13    9   19 1   
    14   11   12 1   
    15   11   17 1   
    16   11   18 1   
    17   12   13 1   
    18   12   14 1   
    19   19   20 1   
    20   19   27 1   
    21   20   21 1   
    22   20   23 1   
    23   20   28 1   
    24   21   22 2   
    25   21   38 1   
    26   23   24 1   
    27   23   25 1   
    28   23   29 1   
    29   24   26 1   
    30   24   30 1   
    31   24   31 1   
    32   25   32 1   
    33   25   33 1   
    34   25   34 1   
    35   26   35 1   
    36   26   36 1   
    37   26   37 1   
    38   38   39 1   
    39   38   46 1   
    40   39   40 1   
    41   39   42 1   
    42   39   47 1   
    43   40   41 2   
    44   40   50 1   
    45   42   43 1   
    46   42   48 1   
    47   42   49 1   
    48   43   44 1   
    49   43   45 1   
    50   50   51 1   
    51   50   54 1   
    52   51   52 1   
    53   51   55 1   
    54   51   56 1   
    55   52   53 2   
    56   52   57 1   
    57   57   58 1   
    58   57   65 1   
    59   58   59 1   
    60   58   61 1   
    61   58   66 1   
    62   59   60 2   
    63   59   69 1   
    64   61   62 1   
    65   61   67 1   
    66   61   68 1   
    67   62   63 1   
    68   62   64 1   
    69   69   70 1   
    70   69   73 1   
    71   70   71 1   
    72   70   74 1   
    73   70   75 1   
    74   71   72 2   
    75   71   76 1   
    76   76   77 1   
    77   76   85 1   
    78   77   78 1   
    79   77   80 1   
    80   77   86 1   
    81   78   79 2   
    82   78   93 1   
    83   80   81 1   
    84   80   87 1   
    85   80   88 1   
    86   81   82 1   
    87   81   89 1   
    88   81   90 1   
    89   82   83 1   
    90   82   84 2   
    91   83   91 1   
    92   83   92 1   
    93   93   94 1   
    94   93  100 1   
    95   94   95 1   
    96   94   97 1   
    97   94  101 1   
    98   95   96 2   
    99   95  109 1   
   100   97   98 1   
   101   97   99 1   
   102   97  102 1   
   103   98  103 1   
   104   98  104 1   
   105   98  105 1   
   106   99  106 1   
   107   99  107 1   
   108   99  108 1   
   109  109  110 1   
   110  109  117 1   
   111  110  111 1   
   112  110  113 1   
   113  110  118 1   
   114  111  112 2   
   115  111  123 1   
   116  113  114 1   
   117  113  119 1   
   118  113  120 1   
   119  114  115 1   
   120  114  116 2   
   121  115  121 1   
   122  115  122 1   
   123  123  124 1   
   124  123  135 1   
   125  124  125 1   
   126  124  127 1   
   127  124  136 1   
   128  125  126 2   
   129  125  144 1   
   130  127  128 1   
   131  127  137 1   
   132  127  138 1   
   133  128  129 ar  
   134  128  130 ar  
   135  129  131 ar  
   136  129  139 1   
   137  130  132 ar  
   138  130  140 1   
   139  131  133 ar  
   140  131  141 1   
   141  132  133 ar  
   142  132  142 1   
   143  133  134 1   
   144  134  143 1   
   145  144  145 1   
   146  144  153 1   
   147  145  146 1   
   148  145  148 1   
   149  145  154 1   
   150  146  147 2   
   151  146  159 1   
   152  148  149 1   
   153  148  155 1   
   154  148  156 1   
   155  149  150 1   
   156  149  157 1   
   157  149  158 1   
   158  150  151 1   
   159  150  152 1   
   160  159  160 1   
   161  159  168 1   
   162  160  161 1   
   163  160  163 1   
   164  160  169 1   
   165  161  162 2   
   166  161  174 1   
   167  163  164 1   
   168  163  170 1   
   169  163  171 1   
   170  164  165 1   
   171  164  172 1   
   172  164  173 1   
   173  165  166 1   
   174  165  167 1   
   175  174  175 1   
   176  174  179 1   
   177  175  176 1   
   178  175  177 1   
   179  175  178 1   
   180  181  182 1   
   181  181  183 1   
   182  184  185 1   
   183  184  186 1   
   184  187  188 1   
   185  187  189 1   
@<TRIPOS>SUBSTRUCTURE
     1 MOL         1 TEMP              0 ****  ****    0 ROOT
