@<TRIPOS>MOLECULE
MOL
  182   178     1     0     0
SMALL
resp


@<TRIPOS>ATOM
      1 C1          2.4510    2.5950    4.7390 c3        1 MOL     -0.514295
      2 C2          1.5440    2.3810    3.5120 c         1 MOL      0.608407
      3 O1          1.9760    1.9100    2.4370 o         1 MOL     -0.474090
      4 H1          1.8350    2.8210    5.6100 hc        1 MOL      0.138102
      5 H2          3.0280    1.6900    4.9290 hc        1 MOL      0.138102
      6 H3          3.1300    3.4270    4.5500 hc        1 MOL      0.138102
      7 N1          0.2870    2.8420    3.5510 n         1 MOL     -0.526869
      8 C3         -0.6320    2.6260    2.4790 c3        1 MOL      0.390431
      9 C4         -0.5520    3.8980    1.6380 c         1 MOL      0.227324
     10 O2         -1.2160    4.8660    1.9680 o         1 MOL     -0.535861
     11 C5         -1.9120    2.1050    2.8940 c3        1 MOL     -0.108725
     12 C6         -2.7780    1.5680    1.6870 c         1 MOL      0.630579
     13 O3         -2.2570    1.5610    0.5180 o         1 MOL     -0.696119
     14 O4         -3.9570    1.1980    1.9110 o         1 MOL     -0.696119
     15 H4         -0.0500    3.2160    4.4260 hn        1 MOL      0.298219
     16 H5         -0.1870    1.8930    1.8010 h1        1 MOL     -0.061739
     17 H6         -2.4710    2.9010    3.3840 hc        1 MOL      0.019586
     18 H7         -1.6140    1.4050    3.6810 hc        1 MOL      0.019586
     19 N2          0.3470    4.0100    0.6580 n         1 MOL     -0.030795
     20 C7          0.6770    5.2470   -0.1040 c3        1 MOL      0.013023
     21 C8         -0.4310    5.7130   -0.9930 c         1 MOL      0.578880
     22 O5         -0.3740    6.8330   -1.4770 o         1 MOL     -0.559838
     23 C9          2.0560    5.0290   -0.6650 c3        1 MOL     -0.110089
     24 C10         3.2280    4.9320    0.2830 c3        1 MOL      0.034811
     25 C11         3.2980    6.0220    1.3990 c3        1 MOL     -0.294365
     26 C12         4.5240    5.8460    2.2610 c3        1 MOL      0.126935
     27 N3          4.5950    6.8620    3.3410 n4        1 MOL     -0.328425
     28 H8          0.7940    3.1370    0.4050 hn        1 MOL      0.093035
     29 H9          0.7610    6.0260    0.6510 h1        1 MOL      0.028127
     30 H10         2.2000    5.8660   -1.3380 hc        1 MOL      0.052327
     31 H11         2.0590    4.0760   -1.2000 hc        1 MOL      0.052327
     32 H12         4.1100    4.8220   -0.3530 hc        1 MOL      0.061560
     33 H13         3.0790    4.0310    0.8770 hc        1 MOL      0.061560
     34 H14         2.3910    5.9280    1.9840 hc        1 MOL      0.102970
     35 H15         3.3420    6.9670    0.8460 hc        1 MOL      0.102970
     36 H16         5.3850    5.9400    1.6100 hx        1 MOL      0.069632
     37 H17         4.5320    4.8260    2.6540 hx        1 MOL      0.069632
     38 H18         5.5090    6.9730    3.7500 hn        1 MOL      0.315082
     39 H19         4.3170    7.7770    3.0150 hn        1 MOL      0.315082
     40 H20         3.9770    6.5460    4.0820 hn        1 MOL      0.315082
     41 N4         -1.4860    4.8570   -1.2070 n         1 MOL     -0.450162
     42 C13        -2.6740    5.1810   -2.0640 c3        1 MOL      0.043854
     43 C14        -3.9970    4.7360   -1.4160 c         1 MOL      0.380275
     44 O6         -5.0590    4.9650   -2.0400 o         1 MOL     -0.530571
     45 C15        -2.5420    4.5240   -3.4290 c3        1 MOL     -0.121637
     46 C16        -2.1780    3.0670   -3.6300 c         1 MOL      0.692438
     47 O7         -2.1470    2.3340   -2.6050 o         1 MOL     -0.683942
     48 O8         -2.0240    2.6090   -4.7620 o         1 MOL     -0.683942
     49 H21        -1.3570    3.8700   -1.0820 hn        1 MOL      0.243830
     50 H22        -2.7420    6.2470   -2.3020 h1        1 MOL      0.118037
     51 H23        -1.8040    5.1000   -3.9750 hc        1 MOL      0.047369
     52 H24        -3.4190    4.8040   -4.0250 hc        1 MOL      0.047369
     53 N5         -3.9470    4.1300   -0.2080 n         1 MOL     -0.112645
     54 C17        -5.1340    4.0650    0.7520 c3        1 MOL     -0.333539
     55 C18        -6.1230    2.8740    0.4510 c         1 MOL      0.612539
     56 O9         -7.1410    2.7640    1.1270 o         1 MOL     -0.562619
     57 H25        -3.0440    3.9010    0.1790 hn        1 MOL      0.146788
     58 H26        -5.7720    4.9520    0.7430 h1        1 MOL      0.156217
     59 H27        -4.7250    3.9720    1.7500 h1        1 MOL      0.156217
     60 N6         -5.6640    2.0110   -0.4760 n         1 MOL     -0.439940
     61 C19        -6.4310    0.8260   -0.9780 c3        1 MOL      0.007401
     62 C20        -6.6050   -0.3480   -0.0570 c         1 MOL      0.331490
     63 O10        -7.1780   -1.3010   -0.5500 o         1 MOL     -0.453584
     64 C21        -5.7530    0.3760   -2.2610 c3        1 MOL     -0.185278
     65 C22        -4.6930   -0.6510   -2.0470 c         1 MOL      0.284400
     66 N7         -4.9380   -1.7060   -2.6810 n         1 MOL     -0.529125
     67 O11        -3.6580   -0.4600   -1.4330 o         1 MOL     -0.389946
     68 H28        -4.8150    2.2750   -0.9510 hn        1 MOL      0.329071
     69 H29        -7.4420    1.1120   -1.2610 h1        1 MOL      0.119907
     70 H30        -5.0900    1.1600   -2.6280 hc        1 MOL      0.101932
     71 H31        -6.5460    0.0600   -2.9420 hc        1 MOL      0.101932
     72 H32        -5.7960   -1.8020   -3.2010 hn        1 MOL      0.327186
     73 H33        -4.1700   -2.3620   -2.7920 hn        1 MOL      0.327186
     74 N8         -6.0490   -0.2920    1.1410 n         1 MOL     -0.204958
     75 C23        -6.1420   -1.3740    2.2060 c3        1 MOL     -0.173719
     76 C24        -5.0210   -2.4290    2.1470 c         1 MOL      0.579579
     77 O12        -5.0290   -3.4760    2.8300 o         1 MOL     -0.584333
     78 H34        -5.4230    0.4720    1.3440 hn        1 MOL      0.316494
     79 H35        -7.1070   -1.8710    2.1090 h1        1 MOL      0.115449
     80 H36        -6.1050   -1.0840    3.2560 h1        1 MOL      0.115449
     81 N9         -4.0120   -2.2960    1.2880 n         1 MOL     -0.392934
     82 C25        -2.9210   -3.2720    1.1030 c3        1 MOL      0.195669
     83 C26        -1.6130   -2.5800    1.2050 c         1 MOL      0.407482
     84 O13        -1.3940   -1.6230    0.4760 o         1 MOL     -0.581532
     85 C27        -3.1860   -3.9760   -0.1900 c3        1 MOL     -0.235528
     86 C28        -4.4010   -4.7860   -0.0480 ca        1 MOL      0.135606
     87 C29        -5.6500   -4.3450   -0.5570 ca        1 MOL     -0.273627
     88 C30        -4.2680   -6.0970    0.4640 ca        1 MOL     -0.273627
     89 C31        -6.7160   -5.2110   -0.3830 ca        1 MOL     -0.091145
     90 C32        -5.3910   -6.9090    0.6560 ca        1 MOL     -0.091145
     91 C33        -6.5820   -6.4800    0.1860 ca        1 MOL      0.225971
     92 O14        -7.6600   -7.3350    0.1840 oh        1 MOL     -0.497536
     93 H37        -3.9350   -1.4410    0.7620 hn        1 MOL      0.280610
     94 H38        -2.9160   -4.0140    1.9030 h1        1 MOL      0.060532
     95 H39        -2.2830   -4.5140   -0.4540 hc        1 MOL      0.067770
     96 H40        -3.3960   -3.2410   -0.9770 hc        1 MOL      0.067770
     97 H41        -5.8010   -3.3630   -0.9690 ha        1 MOL      0.141182
     98 H42        -3.3300   -6.5150    0.7860 ha        1 MOL      0.141182
     99 H43        -7.6890   -4.9270   -0.7550 ha        1 MOL      0.104476
    100 H44        -5.2250   -7.8980    1.0610 ha        1 MOL      0.104476
    101 H45        -7.4900   -8.1440    0.6780 ho        1 MOL      0.360538
    102 N10        -0.6630   -3.1220    1.9420 n         1 MOL     -0.385563
    103 C34         0.7400   -2.6660    2.0280 c3        1 MOL      0.090714
    104 C35         1.6290   -3.5330    1.1490 c         1 MOL      0.463562
    105 O15         1.7110   -4.7290    1.4250 o         1 MOL     -0.556798
    106 C36         1.3440   -2.5970    3.4510 c3        1 MOL      0.004950
    107 C37         0.4230   -1.9720    4.5420 c3        1 MOL      0.160977
    108 C38         2.6180   -1.7010    3.3700 c3        1 MOL     -0.147363
    109 C39         0.7960   -2.3050    6.0250 c3        1 MOL     -0.183728
    110 H46        -0.9390   -3.9420    2.4680 hn        1 MOL      0.265764
    111 H47         0.7120   -1.6360    1.6740 h1        1 MOL      0.085433
    112 H48         1.5480   -3.6130    3.7960 hc        1 MOL      0.021718
    113 H49        -0.6260   -2.1750    4.3400 hc        1 MOL     -0.032984
    114 H50         0.5060   -0.9060    4.3470 hc        1 MOL     -0.032984
    115 H51         2.3760   -0.6540    3.2150 hc        1 MOL      0.036043
    116 H52         3.2950   -1.7020    4.2260 hc        1 MOL      0.036043
    117 H53         3.3170   -1.9650    2.5680 hc        1 MOL      0.036043
    118 H54         0.2280   -3.1940    6.3040 hc        1 MOL      0.041408
    119 H55         1.8390   -2.5090    6.2350 hc        1 MOL      0.041408
    120 H56         0.4060   -1.5100    6.6580 hc        1 MOL      0.041408
    121 N11         2.1530   -3.0500    0.0240 n         1 MOL     -0.145069
    122 C40         3.0920   -3.8520   -0.8310 c3        1 MOL     -0.111344
    123 C41         4.6120   -3.7120   -0.5020 c         1 MOL      0.537953
    124 O16         4.9850   -2.9150    0.3750 o         1 MOL     -0.459714
    125 C42         2.8960   -3.3120   -2.2550 c3        1 MOL     -0.052278
    126 O17         3.1470   -1.9130   -2.3420 oh        1 MOL     -0.516831
    127 H57         2.0670   -2.0480   -0.0920 hn        1 MOL      0.177497
    128 H58         2.8230   -4.9000   -0.8760 h1        1 MOL      0.095983
    129 H59         1.8890   -3.5430   -2.5880 h1        1 MOL      0.073756
    130 H60         3.6410   -3.7730   -2.9000 h1        1 MOL      0.073756
    131 H61         2.5100   -1.4890   -1.7540 ho        1 MOL      0.437770
    132 N12         5.5360   -4.5450   -0.9920 n         1 MOL     -0.453405
    133 C43         6.9280   -4.4090   -0.6780 c3        1 MOL      0.138956
    134 C44         7.6620   -3.1590   -1.3580 c         1 MOL      0.396810
    135 O18         8.5230   -2.4680   -0.8020 o         1 MOL     -0.489619
    136 C45         7.7070   -5.7290   -0.9350 c3        1 MOL     -0.301149
    137 H62         5.2610   -5.3750   -1.5010 hn        1 MOL      0.287986
    138 H63         6.9270   -4.2860    0.4030 h1        1 MOL      0.104596
    139 H64         8.7040   -5.6460   -0.5200 hc        1 MOL      0.092443
    140 H65         7.1990   -6.5950   -0.4950 hc        1 MOL      0.092443
    141 H66         7.6450   -5.7430   -2.0220 hc        1 MOL      0.092443
    142 N13         7.0340   -2.5820   -2.3980 n         1 MOL     -0.286111
    143 C46         7.4580   -1.3170   -2.9500 c3        1 MOL      0.106169
    144 C47         7.1270   -0.1900   -1.9950 c         1 MOL      0.296973
    145 O19         7.8500    0.8520   -1.8740 o         1 MOL     -0.516813
    146 C48         6.9360   -1.0960   -4.3570 c3        1 MOL     -0.433589
    147 H67         6.3570   -3.0860   -2.9540 hn        1 MOL      0.243678
    148 H68         8.5290   -1.3470   -3.1590 h1        1 MOL      0.097413
    149 H69         5.8450   -1.0580   -4.2760 hc        1 MOL      0.130908
    150 H70         7.3360   -0.1520   -4.7300 hc        1 MOL      0.130908
    151 H71         7.4470   -1.8610   -4.9340 hc        1 MOL      0.130908
    152 N14         5.9640   -0.2830   -1.3860 n         1 MOL      0.060464
    153 C49         5.4760    0.6120   -0.2800 c3        1 MOL     -0.323470
    154 C50         6.4110    0.5990    0.9420 c         1 MOL      0.627609
    155 O20         6.7570    1.5930    1.5580 o         1 MOL     -0.597669
    156 C51         3.9520    0.3630    0.0710 c3        1 MOL      0.085438
    157 C52         3.1700    1.1700   -0.9930 c3        1 MOL      0.134451
    158 C53         1.7060    0.8080   -0.9440 c         1 MOL      0.711130
    159 O21         1.3380   -0.3810   -0.9720 o         1 MOL     -0.719191
    160 O22         0.8690    1.7290   -0.9540 o         1 MOL     -0.719191
    161 H72         5.4640   -1.1500   -1.5300 hn        1 MOL      0.073654
    162 H73         5.5350    1.6580   -0.5960 h1        1 MOL      0.105530
    163 H74         3.7920    0.7360    1.0780 hc        1 MOL     -0.055379
    164 H75         3.7140   -0.7070    0.0810 hc        1 MOL     -0.055379
    165 H76         3.4810    0.7920   -1.9650 hc        1 MOL     -0.051728
    166 H77         3.3340    2.2410   -0.9530 hc        1 MOL     -0.051728
    167 N15         6.8800   -0.5910    1.3500 n         1 MOL     -0.128315
    168 C54         7.8060   -0.9060    2.3930 c3        1 MOL     -0.209322
    169 H78         7.3500   -0.6930    3.3590 h1        1 MOL      0.089404
    170 H79         8.0670   -1.9630    2.3400 h1        1 MOL      0.089404
    171 H80         8.7060   -0.3030    2.2750 h1        1 MOL      0.089404
    172 H81         6.7450   -1.3450    0.6910 hn        1 MOL      0.118574
    173 Ca1        -1.1820    0.1930   -1.5690 Ca        1 MOL      1.720150
    174 O23        -2.2800   -0.0500   -4.2970 oh        1 MOL     -0.844649
    175 H82        -2.1770    0.8760   -4.4960 ho        1 MOL      0.399638
    176 H83        -2.6380   -0.4350   -5.1030 ho        1 MOL      0.399638
    177 O24        -0.9720   -2.3370   -2.4760 oh        1 MOL     -0.844649
    178 H84        -0.4810   -3.1590   -2.4700 ho        1 MOL      0.399638
    179 H85        -1.7770   -2.5560   -2.9340 ho        1 MOL      0.399638
    180 O25         0.4050    0.4650   -3.8630 oh        1 MOL     -0.844649
    181 H86         1.2970    0.2160   -4.1230 ho        1 MOL      0.399638
    182 H87         0.0350    0.8950   -4.6310 ho        1 MOL      0.399638
@<TRIPOS>BOND
     1    1    2 1   
     2    1    4 1   
     3    1    5 1   
     4    1    6 1   
     5    2    3 2   
     6    2    7 1   
     7    7    8 1   
     8    7   15 1   
     9    8    9 1   
    10    8   11 1   
    11    8   16 1   
    12    9   10 2   
    13    9   19 1   
    14   11   12 1   
    15   11   17 1   
    16   11   18 1   
    17   12   13 1   
    18   12   14 1   
    19   19   20 1   
    20   19   28 1   
    21   20   21 1   
    22   20   23 1   
    23   20   29 1   
    24   21   22 2   
    25   21   41 1   
    26   23   24 1   
    27   23   30 1   
    28   23   31 1   
    29   24   25 1   
    30   24   32 1   
    31   24   33 1   
    32   25   26 1   
    33   25   34 1   
    34   25   35 1   
    35   26   27 1   
    36   26   36 1   
    37   26   37 1   
    38   27   38 1   
    39   27   39 1   
    40   27   40 1   
    41   41   42 1   
    42   41   49 1   
    43   42   43 1   
    44   42   45 1   
    45   42   50 1   
    46   43   44 2   
    47   43   53 1   
    48   45   46 1   
    49   45   51 1   
    50   45   52 1   
    51   46   47 1   
    52   46   48 1   
    53   53   54 1   
    54   53   57 1   
    55   54   55 1   
    56   54   58 1   
    57   54   59 1   
    58   55   56 2   
    59   55   60 1   
    60   60   61 1   
    61   60   68 1   
    62   61   62 1   
    63   61   64 1   
    64   61   69 1   
    65   62   63 2   
    66   62   74 1   
    67   64   65 1   
    68   64   70 1   
    69   64   71 1   
    70   65   66 1   
    71   65   67 2   
    72   66   72 1   
    73   66   73 1   
    74   74   75 1   
    75   74   78 1   
    76   75   76 1   
    77   75   79 1   
    78   75   80 1   
    79   76   77 2   
    80   76   81 1   
    81   81   82 1   
    82   81   93 1   
    83   82   83 1   
    84   82   85 1   
    85   82   94 1   
    86   83   84 2   
    87   83  102 1   
    88   85   86 1   
    89   85   95 1   
    90   85   96 1   
    91   86   87 ar  
    92   86   88 ar  
    93   87   89 ar  
    94   87   97 1   
    95   88   90 ar  
    96   88   98 1   
    97   89   91 ar  
    98   89   99 1   
    99   90   91 ar  
   100   90  100 1   
   101   91   92 1   
   102   92  101 1   
   103  102  103 1   
   104  102  110 1   
   105  103  104 1   
   106  103  106 1   
   107  103  111 1   
   108  104  105 2   
   109  104  121 1   
   110  106  107 1   
   111  106  108 1   
   112  106  112 1   
   113  107  109 1   
   114  107  113 1   
   115  107  114 1   
   116  108  115 1   
   117  108  116 1   
   118  108  117 1   
   119  109  118 1   
   120  109  119 1   
   121  109  120 1   
   122  121  122 1   
   123  121  127 1   
   124  122  123 1   
   125  122  125 1   
   126  122  128 1   
   127  123  124 2   
   128  123  132 1   
   129  125  126 1   
   130  125  129 1   
   131  125  130 1   
   132  126  131 1   
   133  132  133 1   
   134  132  137 1   
   135  133  134 1   
   136  133  136 1   
   137  133  138 1   
   138  134  135 2   
   139  134  142 1   
   140  136  139 1   
   141  136  140 1   
   142  136  141 1   
   143  142  143 1   
   144  142  147 1   
   145  143  144 1   
   146  143  146 1   
   147  143  148 1   
   148  144  145 2   
   149  144  152 1   
   150  146  149 1   
   151  146  150 1   
   152  146  151 1   
   153  152  153 1   
   154  152  161 1   
   155  153  154 1   
   156  153  156 1   
   157  153  162 1   
   158  154  155 2   
   159  154  167 1   
   160  156  157 1   
   161  156  163 1   
   162  156  164 1   
   163  157  158 1   
   164  157  165 1   
   165  157  166 1   
   166  158  159 1   
   167  158  160 1   
   168  167  168 1   
   169  167  172 1   
   170  168  169 1   
   171  168  170 1   
   172  168  171 1   
   173  174  175 1   
   174  174  176 1   
   175  177  178 1   
   176  177  179 1   
   177  180  181 1   
   178  180  182 1   
@<TRIPOS>SUBSTRUCTURE
     1 MOL         1 TEMP              0 ****  ****    0 ROOT
