@<TRIPOS>MOLECULE
MOL
  175   173     1     0     0
SMALL
resp


@<TRIPOS>ATOM
      1 C1          0.6780    4.6340    5.2440 c3        1 MOL     -0.441155
      2 C2          0.0990    4.3000    3.8500 c         1 MOL      0.665975
      3 O1          0.8540    4.1770    2.8540 o         1 MOL     -0.547758
      4 H1         -0.1390    4.7830    5.9500 hc        1 MOL      0.113128
      5 H2          1.3070    3.8120    5.5830 hc        1 MOL      0.113128
      6 H3          1.2720    5.5460    5.1810 hc        1 MOL      0.113128
      7 N1         -1.2400    4.2270    3.6980 n         1 MOL     -0.553936
      8 C3         -1.9280    3.8250    2.5040 c3        1 MOL      0.212391
      9 C4         -2.0510    4.9360    1.4060 c         1 MOL      0.549851
     10 O2         -2.2670    6.1000    1.7640 o         1 MOL     -0.596173
     11 C5         -3.3420    3.3000    2.8720 c3        1 MOL     -0.496235
     12 C6         -4.0320    2.5350    1.7120 c         1 MOL      0.811441
     13 O3         -5.2480    2.2250    1.7970 o         1 MOL     -0.669520
     14 O4         -3.3320    2.0550    0.7870 o         1 MOL     -0.669520
     15 H4         -1.7260    4.3730    4.5680 hn        1 MOL      0.310113
     16 H5         -1.3790    3.0190    2.0160 h1        1 MOL      0.062582
     17 H6         -3.9880    4.1550    3.0350 hc        1 MOL      0.114342
     18 H7         -3.1630    2.7390    3.7890 hc        1 MOL      0.114342
     19 N2         -1.9500    4.6080    0.1090 n         1 MOL     -0.383243
     20 C7         -2.4800    5.4180   -0.9880 c3        1 MOL      0.216416
     21 C8         -3.6540    4.9190   -1.7840 c         1 MOL      0.323432
     22 O5         -4.2280    5.7310   -2.4560 o         1 MOL     -0.545096
     23 C9         -1.2430    5.4940   -1.9230 c3        1 MOL     -0.293624
     24 H8         -1.5830    3.6960   -0.1120 hn        1 MOL      0.228276
     25 H9         -2.5300    6.4730   -0.7240 h1        1 MOL      0.052992
     26 H10        -0.9280    4.4830   -2.1900 hc        1 MOL      0.075131
     27 H11        -1.5980    6.0120   -2.8210 hc        1 MOL      0.075131
     28 H12        -0.4740    6.0580   -1.4040 hc        1 MOL      0.075131
     29 N3         -3.9970    3.6210   -1.7430 n         1 MOL     -0.026653
     30 C10        -4.8920    3.0680   -2.7600 c3        1 MOL      0.022654
     31 C11        -6.1360    2.2470   -2.3220 c         1 MOL      0.267192
     32 O6         -7.0790    2.0590   -3.0910 o         1 MOL     -0.510632
     33 C12        -4.0870    2.2720   -3.7650 c3        1 MOL     -0.165282
     34 C13        -3.2410    1.1780   -3.1230 c         1 MOL      0.637330
     35 O7         -2.1990    0.7850   -3.6690 o         1 MOL     -0.677103
     36 O8         -3.5580    0.6450   -2.0420 o         1 MOL     -0.677103
     37 H13        -3.7510    3.0430   -0.9560 hn        1 MOL      0.061532
     38 H14        -5.3090    3.9120   -3.3040 h1        1 MOL      0.090201
     39 H15        -3.4760    2.9630   -4.3480 hc        1 MOL      0.046131
     40 H16        -4.6870    1.7530   -4.5140 hc        1 MOL      0.046131
     41 N4         -6.1770    1.8710   -1.0520 n         1 MOL     -0.000478
     42 C14        -7.3090    1.0970   -0.5310 c3        1 MOL     -0.257681
     43 C15        -7.3970   -0.3660   -1.0140 c         1 MOL      0.475038
     44 O9         -8.5230   -0.9830   -0.9270 o         1 MOL     -0.605848
     45 H17        -5.3660    1.9570   -0.4560 hn        1 MOL     -0.013409
     46 H18        -8.2270    1.6020   -0.8310 h1        1 MOL      0.120411
     47 H19        -7.1040    0.9780    0.5390 h1        1 MOL      0.120411
     48 N5         -6.2670   -0.8940   -1.4270 n         1 MOL     -0.247872
     49 C16        -6.2460   -2.1960   -2.0430 c3        1 MOL      0.014202
     50 C17        -6.2840   -3.3620   -1.0180 c         1 MOL      0.440908
     51 O10        -6.0640   -4.5100   -1.3720 o         1 MOL     -0.515901
     52 C18        -4.9840   -2.2510   -2.8940 c3        1 MOL     -0.394415
     53 C19        -3.6380   -2.3390   -2.2270 c         1 MOL      0.443664
     54 N6         -2.6450   -2.7280   -2.9650 n         1 MOL     -0.634644
     55 O11        -3.4080   -2.2250   -1.0310 o         1 MOL      0.050620
     56 H20        -5.4740   -0.2720   -1.4390 hn        1 MOL      0.320094
     57 H21        -7.1500   -2.2730   -2.6500 h1        1 MOL      0.120087
     58 H22        -4.9130   -1.3330   -3.4840 hc        1 MOL      0.122251
     59 H23        -4.9820   -3.2050   -3.4270 hc        1 MOL      0.122251
     60 H24        -2.7420   -2.8390   -3.9670 hn        1 MOL      0.339912
     61 H25        -1.6930   -2.6210   -2.6440 hn        1 MOL      0.339912
     62 N7         -6.3880   -3.1200    0.3070 n         1 MOL     -0.298133
     63 C20        -6.4210   -4.1260    1.4030 c3        1 MOL     -0.181537
     64 C21        -5.0260   -4.4560    1.9740 c         1 MOL      0.497300
     65 O12        -5.0030   -5.2720    2.9530 o         1 MOL     -0.577978
     66 H26        -6.3180   -2.1680    0.6370 hn        1 MOL      0.236601
     67 H27        -6.8940   -5.0280    1.0130 h1        1 MOL      0.122370
     68 H28        -7.0400   -3.7860    2.2310 h1        1 MOL      0.122370
     69 N8         -3.9510   -3.8530    1.4600 n         1 MOL     -0.072774
     70 C22        -2.6100   -4.3150    1.6920 c3        1 MOL     -0.415756
     71 C23        -1.5570   -3.2840    1.8290 c         1 MOL      0.984015
     72 O13        -1.7340   -2.1810    1.3700 o         1 MOL     -0.772796
     73 C24        -2.1440   -5.2470    0.5060 c3        1 MOL      0.557727
     74 C25        -3.1520   -6.3780    0.2190 c3        1 MOL     -0.549009
     75 O14        -1.9700   -4.5910   -0.7510 oh        1 MOL     -0.515840
     76 H29        -4.0560   -3.1500    0.7360 hn        1 MOL     -0.019618
     77 H30        -2.4760   -4.9330    2.5870 h1        1 MOL      0.109111
     78 H31        -1.1490   -5.5860    0.7690 h1        1 MOL     -0.041178
     79 H32        -2.1820   -3.6610   -0.6270 ho        1 MOL      0.118436
     80 H33        -3.9880   -5.9990   -0.3720 hc        1 MOL      0.136998
     81 H34        -2.5570   -7.1080   -0.3340 hc        1 MOL      0.136998
     82 H35        -3.4740   -6.8750    1.1290 hc        1 MOL      0.136998
     83 N9         -0.4260   -3.5520    2.5200 n         1 MOL     -0.799721
     84 C26         0.8540   -2.8200    2.3130 c3        1 MOL      0.098734
     85 C27         1.5510   -3.1550    1.0130 c         1 MOL      0.537685
     86 O15         1.9730   -4.2810    0.6740 o         1 MOL     -0.581101
     87 C28         1.8840   -2.9460    3.4500 c3        1 MOL      0.023947
     88 C29         1.1770   -2.6630    4.7510 c3        1 MOL      0.274167
     89 C30         3.1520   -2.0780    3.1800 c3        1 MOL     -0.054784
     90 C31         2.0770   -2.4770    5.9350 c3        1 MOL     -0.311159
     91 H36        -0.3980   -4.4860    2.9030 hn        1 MOL      0.346828
     92 H37         0.6030   -1.7550    2.2510 h1        1 MOL      0.155530
     93 H38         2.3130   -3.9480    3.4060 hc        1 MOL     -0.016581
     94 H39         0.5030   -3.4940    4.9870 hc        1 MOL     -0.054542
     95 H40         0.5130   -1.8140    4.5960 hc        1 MOL     -0.054542
     96 H41         3.9470   -2.5660    2.6180 hc        1 MOL      0.012159
     97 H42         2.8070   -1.1950    2.6450 hc        1 MOL      0.012159
     98 H43         3.7720   -1.8000    4.0410 hc        1 MOL      0.012159
     99 H44         2.9500   -3.1300    5.8270 hc        1 MOL      0.061047
    100 H45         2.2900   -1.4180    6.0380 hc        1 MOL      0.061047
    101 H46         1.5510   -2.6970    6.8710 hc        1 MOL      0.061047
    102 N10         1.7830   -2.0350    0.2980 n         1 MOL     -0.257223
    103 C32         2.6750   -1.9230   -0.8850 c3        1 MOL      0.227026
    104 C33         4.1190   -1.5040   -0.5530 c         1 MOL      0.104019
    105 O16         4.3220   -0.7220    0.3920 o         1 MOL     -0.102752
    106 C34         1.9590   -1.1040   -2.0210 c3        1 MOL     -0.390472
    107 C35         0.5210   -1.4900   -2.3670 c         1 MOL      0.790525
    108 O17         0.3040   -2.2070   -3.3640 o         1 MOL     -0.692425
    109 O18        -0.5080   -1.2190   -1.7090 o         1 MOL     -0.692425
    110 H47         1.4600   -1.1670    0.7070 hn        1 MOL      0.037608
    111 H48         2.8160   -2.9000   -1.3550 h1        1 MOL      0.033382
    112 H49         2.6390   -1.0850   -2.8770 hc        1 MOL      0.096672
    113 H50         1.7920   -0.1590   -1.5150 hc        1 MOL      0.096672
    114 N11         5.0380   -1.8810   -1.3900 n         1 MOL     -0.345894
    115 C36         6.4000   -1.4420   -1.3580 c3        1 MOL      0.232624
    116 C37         6.7010    0.1390   -1.1240 c         1 MOL      0.337293
    117 O19         7.4680    0.4610   -0.2520 o         1 MOL     -0.503667
    118 C38         7.2570   -1.9870   -2.4750 c3        1 MOL     -0.167605
    119 C39         8.7700   -2.0140   -2.2540 ca        1 MOL     -0.026139
    120 C40         9.6640   -0.9580   -2.4030 ca        1 MOL     -0.021290
    121 C41         9.3360   -3.2240   -1.8640 ca        1 MOL     -0.021290
    122 C42        11.0850   -1.1030   -2.3550 ca        1 MOL     -0.230972
    123 C43        10.7150   -3.4060   -1.7470 ca        1 MOL     -0.230972
    124 C44        11.6040   -2.3250   -1.9400 ca        1 MOL      0.007025
    125 H51         4.7530   -2.4080   -2.2020 hn        1 MOL      0.300128
    126 H52         6.7970   -1.9320   -0.4700 h1        1 MOL      0.056553
    127 H53         6.9870   -1.6170   -3.4650 hc        1 MOL      0.048607
    128 H54         6.9950   -3.0450   -2.4500 hc        1 MOL      0.048607
    129 H55         9.2280   -0.0270   -2.7240 ha        1 MOL      0.087221
    130 H56         8.7170   -4.0840   -1.6440 ha        1 MOL      0.087221
    131 H57        11.7030   -0.2430   -2.5750 ha        1 MOL      0.131184
    132 H58        11.1410   -4.3990   -1.6190 ha        1 MOL      0.131184
    133 H59        12.6630   -2.5520   -1.9880 ha        1 MOL      0.074795
    134 N12         6.0290    1.1410   -1.8340 n         1 MOL      0.015484
    135 C45         6.1610    2.5610   -1.6580 c3        1 MOL     -0.021339
    136 C46         5.5080    3.1400   -0.3790 c         1 MOL      0.349233
    137 O20         5.8260    4.2820    0.0350 o         1 MOL     -0.523649
    138 C47         5.6110    3.1660   -2.9050 c3        1 MOL     -0.233618
    139 C48         4.5490    2.1890   -3.3440 c3        1 MOL      0.088570
    140 C49         5.1400    0.8770   -2.9380 c3        1 MOL     -0.129093
    141 H60         7.2350    2.7060   -1.6110 h1        1 MOL      0.083262
    142 H61         5.1770    4.1440   -2.7300 hc        1 MOL      0.083385
    143 H62         6.3780    3.0850   -3.6780 hc        1 MOL      0.083385
    144 H63         3.6340    2.3930   -2.7910 hc        1 MOL      0.023796
    145 H64         4.3240    2.2030   -4.4100 hc        1 MOL      0.023796
    146 H65         4.3750    0.1910   -2.5870 h1        1 MOL      0.042275
    147 H66         5.7780    0.4150   -3.6880 h1        1 MOL      0.042275
    148 N13         4.7170    2.2970    0.2510 n         1 MOL     -0.049618
    149 C50         4.0970    2.5130    1.5770 c3        1 MOL     -0.168978
    150 C51         4.9740    1.8710    2.6870 c         1 MOL      0.528398
    151 O21         5.1110    2.4180    3.7670 o         1 MOL     -0.542089
    152 C52         2.7190    1.8790    1.6120 c3        1 MOL      0.077492
    153 C53         1.9060    2.2830    0.3730 c3        1 MOL      0.096956
    154 C54         0.5140    1.6080    0.3380 c         1 MOL      0.307647
    155 O22        -0.4660    2.1080   -0.2840 o         1 MOL     -0.565429
    156 O23         0.3630    0.4950    0.9350 o         1 MOL     -0.565429
    157 H67         4.5650    1.3700   -0.1180 hn        1 MOL      0.027019
    158 H68         4.0560    3.5810    1.7810 h1        1 MOL      0.114049
    159 H69         2.2740    2.0170    2.5990 hc        1 MOL     -0.010245
    160 H70         2.9110    0.8100    1.5500 hc        1 MOL     -0.010245
    161 H71         2.3050    2.0720   -0.6170 hc        1 MOL      0.036306
    162 H72         1.7630    3.3620    0.2570 hc        1 MOL      0.036306
    163 N14         5.6690    0.7240    2.3520 n         1 MOL     -0.164351
    164 C55         6.6210    0.1820    3.3650 c3        1 MOL     -0.169458
    165 H73         6.1990    0.3050    4.3620 h1        1 MOL      0.073230
    166 H74         6.7940   -0.8770    3.1720 h1        1 MOL      0.073230
    167 H75         7.5660    0.7220    3.3020 h1        1 MOL      0.073230
    168 H76         5.2860    0.1460    1.6330 hn        1 MOL      0.042882
    169 Ca1        -2.0750   -0.0380   -0.0630 Ca        1 MOL      1.592463
    170 O24        -1.5780    0.5340    2.6480 oh        1 MOL     -0.717456
    171 H77        -0.6480    0.5770    2.4360 ho        1 MOL      0.356398
    172 H78        -1.6200    0.6910    3.5870 ho        1 MOL      0.356398
    173 O25        -4.6360   -0.4540    1.1280 oh        1 MOL     -0.717456
    174 H79        -4.7040   -0.7790    2.0320 ho        1 MOL      0.356398
    175 H80        -4.8030    0.4880    1.2050 ho        1 MOL      0.356398
@<TRIPOS>BOND
     1    1    2 1   
     2    1    4 1   
     3    1    5 1   
     4    1    6 1   
     5    2    3 2   
     6    2    7 1   
     7    7    8 1   
     8    7   15 1   
     9    8    9 1   
    10    8   11 1   
    11    8   16 1   
    12    9   10 2   
    13    9   19 1   
    14   11   12 1   
    15   11   17 1   
    16   11   18 1   
    17   12   13 1   
    18   12   14 1   
    19   19   20 1   
    20   19   24 1   
    21   20   21 1   
    22   20   23 1   
    23   20   25 1   
    24   21   22 2   
    25   21   29 1   
    26   23   26 1   
    27   23   27 1   
    28   23   28 1   
    29   29   30 1   
    30   29   37 1   
    31   30   31 1   
    32   30   33 1   
    33   30   38 1   
    34   31   32 2   
    35   31   41 1   
    36   33   34 1   
    37   33   39 1   
    38   33   40 1   
    39   34   35 1   
    40   34   36 1   
    41   41   42 1   
    42   41   45 1   
    43   42   43 1   
    44   42   46 1   
    45   42   47 1   
    46   43   44 2   
    47   43   48 1   
    48   48   49 1   
    49   48   56 1   
    50   49   50 1   
    51   49   52 1   
    52   49   57 1   
    53   50   51 2   
    54   50   62 1   
    55   52   53 1   
    56   52   58 1   
    57   52   59 1   
    58   53   54 1   
    59   53   55 2   
    60   54   60 1   
    61   54   61 1   
    62   62   63 1   
    63   62   66 1   
    64   63   64 1   
    65   63   67 1   
    66   63   68 1   
    67   64   65 2   
    68   64   69 1   
    69   69   70 1   
    70   69   76 1   
    71   70   71 1   
    72   70   73 1   
    73   70   77 1   
    74   71   72 2   
    75   71   83 1   
    76   73   74 1   
    77   73   75 1   
    78   73   78 1   
    79   74   80 1   
    80   74   81 1   
    81   74   82 1   
    82   75   79 1   
    83   83   84 1   
    84   83   91 1   
    85   84   85 1   
    86   84   87 1   
    87   84   92 1   
    88   85   86 2   
    89   85  102 1   
    90   87   88 1   
    91   87   89 1   
    92   87   93 1   
    93   88   90 1   
    94   88   94 1   
    95   88   95 1   
    96   89   96 1   
    97   89   97 1   
    98   89   98 1   
    99   90   99 1   
   100   90  100 1   
   101   90  101 1   
   102  102  103 1   
   103  102  110 1   
   104  103  104 1   
   105  103  106 1   
   106  103  111 1   
   107  104  105 2   
   108  104  114 1   
   109  106  107 1   
   110  106  112 1   
   111  106  113 1   
   112  107  108 1   
   113  107  109 1   
   114  114  115 1   
   115  114  125 1   
   116  115  116 1   
   117  115  118 1   
   118  115  126 1   
   119  116  117 2   
   120  116  134 1   
   121  118  119 1   
   122  118  127 1   
   123  118  128 1   
   124  119  120 ar  
   125  119  121 ar  
   126  120  122 ar  
   127  120  129 1   
   128  121  123 ar  
   129  121  130 1   
   130  122  124 ar  
   131  122  131 1   
   132  123  124 ar  
   133  123  132 1   
   134  124  133 1   
   135  134  135 1   
   136  134  140 1   
   137  135  136 1   
   138  135  138 1   
   139  135  141 1   
   140  136  137 2   
   141  136  148 1   
   142  138  139 1   
   143  138  142 1   
   144  138  143 1   
   145  139  140 1   
   146  139  144 1   
   147  139  145 1   
   148  140  146 1   
   149  140  147 1   
   150  148  149 1   
   151  148  157 1   
   152  149  150 1   
   153  149  152 1   
   154  149  158 1   
   155  150  151 2   
   156  150  163 1   
   157  152  153 1   
   158  152  159 1   
   159  152  160 1   
   160  153  154 1   
   161  153  161 1   
   162  153  162 1   
   163  154  155 1   
   164  154  156 1   
   165  163  164 1   
   166  163  168 1   
   167  164  165 1   
   168  164  166 1   
   169  164  167 1   
   170  170  171 1   
   171  170  172 1   
   172  173  174 1   
   173  173  175 1   
@<TRIPOS>SUBSTRUCTURE
     1 MOL         1 TEMP              0 ****  ****    0 ROOT
