@<TRIPOS>MOLECULE
MOL
  179   176     1     0     0
SMALL
resp


@<TRIPOS>ATOM
      1 C1          2.1380    1.6650    5.5200 c3        1 MOL     -0.283840
      2 C2          1.6070    1.9020    4.1600 c         1 MOL      0.743857
      3 O1          2.3540    1.9900    3.1760 o         1 MOL     -0.617162
      4 H1          3.2270    1.6890    5.4930 hc        1 MOL      0.075090
      5 H2          1.7730    2.4400    6.1930 hc        1 MOL      0.075090
      6 H3          1.8050    0.6890    5.8750 hc        1 MOL      0.075090
      7 N1          0.2940    2.1050    4.0540 n         1 MOL     -0.673414
      8 C3         -0.4420    2.1780    2.8140 c3        1 MOL      0.179387
      9 C4         -0.2170    3.5250    2.1600 c         1 MOL      0.647551
     10 O2         -1.0540    4.3510    2.2210 o         1 MOL     -0.560396
     11 C5         -1.8850    1.7450    3.0650 c3        1 MOL     -0.224759
     12 C6         -2.7880    1.6460    1.8580 c         1 MOL      0.660466
     13 O3         -4.0170    1.5350    2.1670 o         1 MOL     -0.636456
     14 O4         -2.3830    1.7690    0.6710 o         1 MOL     -0.636456
     15 H4         -0.2390    2.0290    4.9090 hn        1 MOL      0.337396
     16 H5         -0.0370    1.4400    2.1260 h1        1 MOL      0.051513
     17 H6         -2.3330    2.4400    3.7750 hc        1 MOL      0.062902
     18 H7         -1.8520    0.7920    3.6070 hc        1 MOL      0.062902
     19 N2          0.9200    3.6970    1.4620 n         1 MOL     -0.475510
     20 C7          1.3220    4.9970    0.8930 c3        1 MOL     -0.109152
     21 C8          0.4570    5.4410   -0.3070 c         1 MOL      0.556768
     22 O5          0.8430    6.3230   -0.9820 o         1 MOL     -0.545131
     23 C9          2.7920    4.7980    0.5190 c3        1 MOL      0.193747
     24 C10         3.6520    6.0610    0.3300 c3        1 MOL     -0.441064
     25 C11         4.1280    6.3060   -1.0330 c3        1 MOL      0.286082
     26 C12         5.1210    7.4510   -0.9900 c3        1 MOL     -0.034761
     27 N3          5.6230    7.6370   -2.3880 n4        1 MOL     -0.312289
     28 H8          1.5220    2.8910    1.3580 hn        1 MOL      0.367578
     29 H9          1.2130    5.7000    1.7300 h1        1 MOL      0.096440
     30 H10         2.8280    4.2830   -0.4340 hc        1 MOL      0.054165
     31 H11         3.3470    4.1840    1.2420 hc        1 MOL      0.054165
     32 H12         4.5490    5.9580    0.9280 hc        1 MOL      0.107555
     33 H13         3.0470    6.9460    0.5120 hc        1 MOL      0.107555
     34 H14         3.2980    6.5720   -1.6910 hc        1 MOL     -0.039553
     35 H15         4.6740    5.4620   -1.4690 hc        1 MOL     -0.039553
     36 H16         5.8870    7.0770   -0.3030 hx        1 MOL      0.091761
     37 H17         4.6160    8.3720   -0.7130 hx        1 MOL      0.091761
     38 H18         6.4480    8.2140   -2.4530 hn        1 MOL      0.311597
     39 H19         5.9030    6.7400   -2.7500 hn        1 MOL      0.311597
     40 H20         4.9530    8.0820   -3.0100 hn        1 MOL      0.311597
     41 N4         -0.6560    4.8350   -0.5360 n         1 MOL     -0.297048
     42 C13        -1.6400    5.1890   -1.5550 c3        1 MOL     -0.011047
     43 C14        -3.1150    5.0510   -1.1390 c         1 MOL      0.487651
     44 O6         -3.9750    5.2190   -1.9970 o         1 MOL     -0.535001
     45 C15        -1.3580    4.3520   -2.7890 c3        1 MOL     -0.074741
     46 C16        -1.3570    2.8990   -2.4680 c         1 MOL      0.742299
     47 O7         -0.2650    2.3150   -2.1410 o         1 MOL     -0.754060
     48 O8         -2.3970    2.2690   -2.5510 o         1 MOL     -0.754060
     49 H21        -0.7720    4.0080    0.0320 hn        1 MOL      0.088465
     50 H22        -1.6210    6.2040   -1.9280 h1        1 MOL      0.096971
     51 H23        -0.3560    4.6450   -3.1060 hc        1 MOL      0.022847
     52 H24        -2.0380    4.5740   -3.6180 hc        1 MOL      0.022847
     53 N5         -3.4070    4.6390    0.0890 n         1 MOL     -0.344901
     54 C17        -4.7590    4.6810    0.6630 c3        1 MOL     -0.024869
     55 C18        -5.7300    3.5730    0.2230 c         1 MOL      0.495451
     56 O9         -6.8990    3.7600    0.4180 o         1 MOL     -0.568098
     57 H25        -2.6890    4.3500    0.7330 hn        1 MOL      0.256852
     58 H26        -5.2480    5.6330    0.4540 h1        1 MOL      0.073121
     59 H27        -4.6620    4.7070    1.7520 h1        1 MOL      0.073121
     60 N6         -5.2430    2.5300   -0.4220 n         1 MOL     -0.107718
     61 C19        -6.0580    1.5880   -1.1450 c3        1 MOL     -0.037513
     62 C20        -6.4790    0.3790   -0.3830 c         1 MOL      0.288719
     63 O10        -7.3250   -0.3910   -0.8870 o         1 MOL     -0.503622
     64 C21        -5.3590    1.1880   -2.4780 c3        1 MOL     -0.287558
     65 C22        -4.5570   -0.0980   -2.4270 c         1 MOL      0.623788
     66 N7         -4.7430   -1.0080   -3.3910 n         1 MOL     -0.708650
     67 O11        -3.7490   -0.4370   -1.5010 o         1 MOL     -0.567494
     68 H28        -4.2460    2.4270   -0.5570 hn        1 MOL      0.138093
     69 H29        -7.0020    2.0970   -1.3530 h1        1 MOL      0.131482
     70 H30        -4.6820    1.9930   -2.7660 hc        1 MOL      0.129286
     71 H31        -6.0650    1.0220   -3.2930 hc        1 MOL      0.129286
     72 H32        -5.1940   -0.7720   -4.2570 hn        1 MOL      0.341530
     73 H33        -4.0540   -1.7410   -3.4820 hn        1 MOL      0.341530
     74 N8         -6.0420    0.2120    0.8890 n         1 MOL     -0.025240
     75 C23        -6.4990   -0.8450    1.7880 c3        1 MOL     -0.317717
     76 C24        -5.6500   -2.0140    1.8510 c         1 MOL      0.724062
     77 O12        -6.0690   -2.9690    2.4270 o         1 MOL     -0.570356
     78 H34        -5.3710    0.9300    1.1390 hn        1 MOL      0.138739
     79 H35        -7.4890   -1.0990    1.4130 h1        1 MOL      0.138156
     80 H36        -6.6300   -0.4370    2.7870 h1        1 MOL      0.138156
     81 N9         -4.4400   -1.9760    1.2460 n         1 MOL     -0.574178
     82 C25        -3.4340   -3.0690    1.1120 c3        1 MOL      0.290726
     83 C26        -2.0070   -2.4590    1.2230 c         1 MOL      0.381957
     84 O13        -1.7550   -1.2850    0.8890 o         1 MOL     -0.557914
     85 C27        -3.6380   -3.8810   -0.1870 c3        1 MOL      0.106044
     86 C28        -5.0350   -4.3260   -0.5010 ca        1 MOL     -0.137445
     87 C29        -5.4070   -5.6120   -0.1740 ca        1 MOL     -0.057017
     88 C30        -5.9970   -3.4980   -1.2030 ca        1 MOL     -0.057017
     89 C31        -6.5790   -6.1380   -0.6950 ca        1 MOL     -0.214925
     90 C32        -7.2660   -4.0030   -1.6090 ca        1 MOL     -0.214925
     91 C33        -7.4980   -5.3760   -1.4240 ca        1 MOL      0.264891
     92 O14        -8.7340   -5.8780   -1.7500 oh        1 MOL     -0.520853
     93 H37        -4.1610   -1.1230    0.7860 hn        1 MOL      0.243382
     94 H38        -3.5840   -3.8520    1.8620 h1        1 MOL      0.006022
     95 H39        -3.0220   -4.7780   -0.1600 hc        1 MOL     -0.033397
     96 H40        -3.3400   -3.1850   -0.9770 hc        1 MOL     -0.033397
     97 H41        -4.7060   -6.2500    0.3320 ha        1 MOL      0.101203
     98 H42        -5.8030   -2.4670   -1.4770 ha        1 MOL      0.101203
     99 H43        -6.7230   -7.1870   -0.5150 ha        1 MOL      0.128981
    100 H44        -7.9730   -3.3200   -2.0600 ha        1 MOL      0.128981
    101 H45        -9.3200   -5.1710   -2.0350 ho        1 MOL      0.397790
    102 N10        -1.0310   -3.2500    1.6900 n         1 MOL     -0.280279
    103 C34         0.4020   -2.8740    1.7200 c3        1 MOL     -0.423855
    104 C35         1.3120   -3.7310    0.8550 c         1 MOL      0.577545
    105 O15         1.3660   -4.9680    1.0240 o         1 MOL     -0.571074
    106 C36         0.8920   -3.1820    3.1930 c3        1 MOL      0.443266
    107 C37        -0.0760   -2.5050    4.1800 c3        1 MOL      0.150096
    108 C38         2.3610   -2.6820    3.3850 c3        1 MOL     -0.646209
    109 C39         0.3320   -2.8840    5.6310 c3        1 MOL     -0.453197
    110 H46        -1.3870   -4.0770    2.1340 hn        1 MOL      0.266881
    111 H47         0.5770   -1.8290    1.4500 h1        1 MOL      0.155897
    112 H48         0.8510   -4.2620    3.3080 hc        1 MOL     -0.018931
    113 H49        -1.0750   -2.8920    3.9690 hc        1 MOL     -0.013012
    114 H50        -0.1480   -1.4190    4.2010 hc        1 MOL     -0.013012
    115 H51         2.6150   -2.7470    4.4380 hc        1 MOL      0.155109
    116 H52         3.1130   -3.2510    2.8580 hc        1 MOL      0.155109
    117 H53         2.2620   -1.6260    3.1170 hc        1 MOL      0.155109
    118 H54         0.3880   -3.9470    5.8340 hc        1 MOL      0.102541
    119 H55         1.2830   -2.4690    5.9640 hc        1 MOL      0.102541
    120 H56        -0.3110   -2.3070    6.2870 hc        1 MOL      0.102541
    121 N11         1.9490   -3.1550   -0.1430 n         1 MOL     -0.225800
    122 C40         2.7410   -3.9470   -1.1480 c3        1 MOL     -0.212145
    123 C41         4.1750   -3.8910   -0.8280 c         1 MOL      0.612745
    124 O16         4.6500   -3.0400   -0.1100 o         1 MOL     -0.504882
    125 C42         2.3890   -3.6030   -2.5500 c3        1 MOL      0.249944
    126 O17         2.5990   -2.3020   -2.9240 oh        1 MOL     -0.651176
    127 H57         1.9530   -2.1510   -0.1320 hn        1 MOL      0.340650
    128 H58         2.5310   -5.0050   -0.9870 h1        1 MOL      0.096552
    129 H59         1.3390   -3.8250   -2.7250 h1        1 MOL      0.004198
    130 H60         2.8290   -4.2790   -3.2730 h1        1 MOL      0.004198
    131 H61         2.1680   -1.7040   -2.3130 ho        1 MOL      0.432014
    132 N12         5.0000   -4.8140   -1.2940 n         1 MOL     -0.498422
    133 C43         6.4290   -4.8920   -0.9160 c3        1 MOL      0.220565
    134 C44         7.3760   -3.6830   -1.1610 c         1 MOL      0.466735
    135 O18         8.1340   -3.3100   -0.2600 o         1 MOL     -0.540602
    136 C45         7.0170   -6.1010   -1.6740 c3        1 MOL     -0.337085
    137 H62         4.6660   -5.5250   -1.9250 hn        1 MOL      0.280331
    138 H63         6.5230   -5.1180    0.1420 h1        1 MOL      0.069766
    139 H64         7.2280   -5.8150   -2.7080 hc        1 MOL      0.093571
    140 H65         7.9280   -6.3720   -1.1350 hc        1 MOL      0.093571
    141 H66         6.2710   -6.8840   -1.6150 hc        1 MOL      0.093571
    142 N13         7.1490   -2.9310   -2.2000 n         1 MOL     -0.359027
    143 C46         7.6720   -1.5220   -2.3780 c3        1 MOL      0.054554
    144 C47         7.1920   -0.4380   -1.4890 c         1 MOL      0.380941
    145 O19         7.9770    0.4450   -1.1970 o         1 MOL     -0.530705
    146 C48         7.3770   -1.1160   -3.9090 c3        1 MOL     -0.427920
    147 H67         6.4860   -3.2600   -2.8860 hn        1 MOL      0.244413
    148 H68         8.7420   -1.6860   -2.3030 h1        1 MOL      0.130085
    149 H69         8.0820   -1.6860   -4.5130 hc        1 MOL      0.127488
    150 H70         6.3520   -1.3990   -4.1680 hc        1 MOL      0.127488
    151 H71         7.5780   -0.0730   -4.1390 hc        1 MOL      0.127488
    152 N14         6.0550   -0.5880   -0.8450 n         1 MOL     -0.108532
    153 C49         5.5380    0.2510    0.2570 c3        1 MOL     -0.103069
    154 C50         6.0150   -0.1430    1.6520 c         1 MOL      0.467789
    155 O20         6.2990    0.7540    2.4800 o         1 MOL     -0.539749
    156 C51         3.9810    0.2340    0.2930 c3        1 MOL      0.123800
    157 C52         3.1450    0.8890   -0.8450 c3        1 MOL     -0.092973
    158 C53         1.7040    0.3700   -0.6040 c         1 MOL      0.772129
    159 O21         1.3310   -0.6500   -1.2680 o         1 MOL     -0.756568
    160 O22         0.9520    0.9540    0.1550 o         1 MOL     -0.756568
    161 H72         5.5880   -1.4510   -1.0800 hn        1 MOL      0.172540
    162 H73         5.8750    1.2830    0.1080 h1        1 MOL      0.098786
    163 H74         3.7320    0.5940    1.2920 hc        1 MOL     -0.055024
    164 H75         3.6810   -0.8110    0.2100 hc        1 MOL     -0.055024
    165 H76         3.4610    0.4450   -1.7880 hc        1 MOL     -0.029528
    166 H77         3.2110    1.9790   -0.8100 hc        1 MOL     -0.029528
    167 N15         6.3150   -1.4280    1.8150 n         1 MOL     -0.109747
    168 C54         7.0990   -1.8480    3.0060 c3        1 MOL     -0.270630
    169 H78         8.1640   -1.7570    2.7910 h1        1 MOL      0.108074
    170 H79         6.8450   -1.2110    3.8520 h1        1 MOL      0.108074
    171 H80         6.8660   -2.8850    3.2490 h1        1 MOL      0.108074
    172 H81         6.0430   -2.1880    1.2100 hn        1 MOL      0.165842
    173 Ca1        -1.2990    0.2290   -1.1180 Ca        1 MOL      1.758948
    174 O23        -1.0540   -0.2620   -3.6810 oh        1 MOL     -0.853653
    175 H82        -1.7050   -0.4280   -4.3650 ho        1 MOL      0.413259
    176 H83        -0.2930    0.0450   -4.1550 ho        1 MOL      0.413259
    177 O24        -1.0590   -2.8170   -2.0030 oh        1 MOL     -0.853653
    178 H84        -0.4250   -2.6490   -2.7110 ho        1 MOL      0.413259
    179 H85        -1.4110   -3.6800   -2.2030 ho        1 MOL      0.413259
@<TRIPOS>BOND
     1    1    2 1   
     2    1    4 1   
     3    1    5 1   
     4    1    6 1   
     5    2    3 2   
     6    2    7 1   
     7    7    8 1   
     8    7   15 1   
     9    8    9 1   
    10    8   11 1   
    11    8   16 1   
    12    9   10 2   
    13    9   19 1   
    14   11   12 1   
    15   11   17 1   
    16   11   18 1   
    17   12   13 1   
    18   12   14 1   
    19   19   20 1   
    20   19   28 1   
    21   20   21 1   
    22   20   23 1   
    23   20   29 1   
    24   21   22 2   
    25   21   41 1   
    26   23   24 1   
    27   23   30 1   
    28   23   31 1   
    29   24   25 1   
    30   24   32 1   
    31   24   33 1   
    32   25   26 1   
    33   25   34 1   
    34   25   35 1   
    35   26   27 1   
    36   26   36 1   
    37   26   37 1   
    38   27   38 1   
    39   27   39 1   
    40   27   40 1   
    41   41   42 1   
    42   41   49 1   
    43   42   43 1   
    44   42   45 1   
    45   42   50 1   
    46   43   44 2   
    47   43   53 1   
    48   45   46 1   
    49   45   51 1   
    50   45   52 1   
    51   46   47 1   
    52   46   48 1   
    53   53   54 1   
    54   53   57 1   
    55   54   55 1   
    56   54   58 1   
    57   54   59 1   
    58   55   56 2   
    59   55   60 1   
    60   60   61 1   
    61   60   68 1   
    62   61   62 1   
    63   61   64 1   
    64   61   69 1   
    65   62   63 2   
    66   62   74 1   
    67   64   65 1   
    68   64   70 1   
    69   64   71 1   
    70   65   66 1   
    71   65   67 2   
    72   66   72 1   
    73   66   73 1   
    74   74   75 1   
    75   74   78 1   
    76   75   76 1   
    77   75   79 1   
    78   75   80 1   
    79   76   77 2   
    80   76   81 1   
    81   81   82 1   
    82   81   93 1   
    83   82   83 1   
    84   82   85 1   
    85   82   94 1   
    86   83   84 2   
    87   83  102 1   
    88   85   86 1   
    89   85   95 1   
    90   85   96 1   
    91   86   87 ar  
    92   86   88 ar  
    93   87   89 ar  
    94   87   97 1   
    95   88   90 ar  
    96   88   98 1   
    97   89   91 ar  
    98   89   99 1   
    99   90   91 ar  
   100   90  100 1   
   101   91   92 1   
   102   92  101 1   
   103  102  103 1   
   104  102  110 1   
   105  103  104 1   
   106  103  106 1   
   107  103  111 1   
   108  104  105 2   
   109  104  121 1   
   110  106  107 1   
   111  106  108 1   
   112  106  112 1   
   113  107  109 1   
   114  107  113 1   
   115  107  114 1   
   116  108  115 1   
   117  108  116 1   
   118  108  117 1   
   119  109  118 1   
   120  109  119 1   
   121  109  120 1   
   122  121  122 1   
   123  121  127 1   
   124  122  123 1   
   125  122  125 1   
   126  122  128 1   
   127  123  124 2   
   128  123  132 1   
   129  125  126 1   
   130  125  129 1   
   131  125  130 1   
   132  126  131 1   
   133  132  133 1   
   134  132  137 1   
   135  133  134 1   
   136  133  136 1   
   137  133  138 1   
   138  134  135 2   
   139  134  142 1   
   140  136  139 1   
   141  136  140 1   
   142  136  141 1   
   143  142  143 1   
   144  142  147 1   
   145  143  144 1   
   146  143  146 1   
   147  143  148 1   
   148  144  145 2   
   149  144  152 1   
   150  146  149 1   
   151  146  150 1   
   152  146  151 1   
   153  152  153 1   
   154  152  161 1   
   155  153  154 1   
   156  153  156 1   
   157  153  162 1   
   158  154  155 2   
   159  154  167 1   
   160  156  157 1   
   161  156  163 1   
   162  156  164 1   
   163  157  158 1   
   164  157  165 1   
   165  157  166 1   
   166  158  159 1   
   167  158  160 1   
   168  167  168 1   
   169  167  172 1   
   170  168  169 1   
   171  168  170 1   
   172  168  171 1   
   173  174  175 1   
   174  174  176 1   
   175  177  178 1   
   176  177  179 1   
@<TRIPOS>SUBSTRUCTURE
     1 MOL         1 TEMP              0 ****  ****    0 ROOT
