@<TRIPOS>MOLECULE
MOL
  189   185     1     0     0
SMALL
resp


@<TRIPOS>ATOM
      1 C1         -0.7510    2.1070    6.7120 c3        1 MOL     -0.245391
      2 C2         -1.0200    1.9970    5.1830 c         1 MOL      0.717170
      3 O1         -0.1490    2.1790    4.3100 o         1 MOL     -0.640198
      4 H1         -0.9120    1.1360    7.1790 hc        1 MOL      0.061315
      5 H2          0.2790    2.4240    6.8780 hc        1 MOL      0.061315
      6 H3         -1.4310    2.8380    7.1500 hc        1 MOL      0.061315
      7 N1         -2.2820    1.7040    4.8260 n         1 MOL     -0.608124
      8 C3         -2.5880    1.3670    3.3900 c3        1 MOL      0.352000
      9 C4         -2.8140    2.7360    2.7280 c         1 MOL      0.341220
     10 O2         -3.8050    3.4160    2.9850 o         1 MOL     -0.516010
     11 C5         -3.7780    0.3600    3.3020 c3        1 MOL     -0.392198
     12 C6         -4.0450   -0.0090    1.8670 c         1 MOL      0.837132
     13 O3         -4.8940   -0.8810    1.5640 o         1 MOL     -0.685192
     14 O4         -3.3080    0.4680    0.9590 o         1 MOL     -0.685192
     15 H4         -2.9740    1.4530    5.5160 hn        1 MOL      0.322250
     16 H5         -1.7280    0.9440    2.8840 h1        1 MOL     -0.052434
     17 H6         -4.7350    0.6490    3.7350 hc        1 MOL      0.097528
     18 H7         -3.5170   -0.6250    3.7080 hc        1 MOL      0.097528
     19 N2         -1.7970    3.1820    1.9580 n         1 MOL     -0.021273
     20 C7         -1.7640    4.5990    1.5540 c3        1 MOL     -0.196537
     21 C8         -2.7840    4.9300    0.5230 c         1 MOL      0.530559
     22 O5         -3.3170    6.0120    0.5310 o         1 MOL     -0.578331
     23 C9         -0.3180    4.9970    1.1010 c3        1 MOL     -0.332857
     24 C10         0.0710    4.8010   -0.3660 c3        1 MOL      0.130288
     25 C11         1.3370    5.5820   -0.6830 c3        1 MOL     -0.131072
     26 C12         1.2080    7.0590   -0.8330 c3        1 MOL      0.101075
     27 N3          2.4110    7.7900   -0.4330 n4        1 MOL     -0.496451
     28 H8         -1.0870    2.5330    1.6650 hn        1 MOL      0.167948
     29 H9         -2.0410    5.1910    2.4390 h1        1 MOL      0.134905
     30 H10         0.4010    4.5580    1.7840 hc        1 MOL      0.135887
     31 H11        -0.2530    6.0790    1.2220 hc        1 MOL      0.135887
     32 H12        -0.6720    5.1520   -1.0730 hc        1 MOL      0.003867
     33 H13         0.0790    3.7440   -0.6670 hc        1 MOL      0.003867
     34 H14         1.8070    5.2130   -1.5930 hc        1 MOL      0.015380
     35 H15         1.8910    5.4150    0.2420 hc        1 MOL      0.015380
     36 H16         0.3780    7.3340   -0.1830 hx        1 MOL      0.079364
     37 H17         0.9030    7.2360   -1.8670 hx        1 MOL      0.079364
     38 H18         2.5520    7.6100    0.5490 hn        1 MOL      0.367906
     39 H19         3.2190    7.4330   -0.9190 hn        1 MOL      0.367906
     40 H20         2.2760    8.7880   -0.5070 hn        1 MOL      0.367906
     41 N4         -3.2420    3.9730   -0.3180 n         1 MOL     -0.211143
     42 C13        -4.1710    4.1310   -1.4250 c3        1 MOL      0.012740
     43 C14        -5.4230    3.2860   -1.1070 c         1 MOL      0.413457
     44 O6         -6.3690    3.4210   -1.8840 o         1 MOL     -0.509056
     45 C15        -3.5450    3.9550   -2.7690 c3        1 MOL     -0.194780
     46 C16        -2.6800    2.7580   -2.9210 c         1 MOL      0.877478
     47 O7         -2.6580    1.7890   -2.1120 o         1 MOL     -0.774156
     48 O8         -1.8800    2.7330   -3.8760 o         1 MOL     -0.774156
     49 H21        -2.7150    3.1170   -0.3210 hn        1 MOL      0.108225
     50 H22        -4.5190    5.1610   -1.4850 h1        1 MOL      0.094791
     51 H23        -2.9620    4.8370   -3.0370 hc        1 MOL      0.051907
     52 H24        -4.3340    3.8860   -3.5180 hc        1 MOL      0.051907
     53 N5         -5.4710    2.5200   -0.0160 n         1 MOL     -0.159605
     54 C17        -6.6490    1.7390    0.3580 c3        1 MOL     -0.108742
     55 C18        -7.0710    0.6110   -0.5900 c         1 MOL      0.517234
     56 O9         -8.2230    0.5350   -1.0400 o         1 MOL     -0.596459
     57 H25        -4.7890    2.5560    0.7240 hn        1 MOL      0.160609
     58 H26        -7.5070    2.4130    0.4330 h1        1 MOL      0.070810
     59 H27        -6.4260    1.2400    1.3010 h1        1 MOL      0.070810
     60 N6         -6.1650   -0.2680   -0.9450 n         1 MOL     -0.139502
     61 C19        -6.4500   -1.3300   -1.9620 c3        1 MOL      0.171847
     62 C20        -6.3990   -2.7420   -1.3620 c         1 MOL      0.371511
     63 O10        -6.5140   -3.6420   -2.1620 o         1 MOL     -0.514392
     64 C21        -5.4590   -1.2320   -3.1620 c3        1 MOL     -0.526036
     65 C22        -3.9900   -1.3890   -2.6580 c         1 MOL      0.870699
     66 O11        -3.0300   -1.0290   -3.3830 o         1 MOL     -0.754718
     67 O12        -3.7520   -1.7550   -1.4900 o         1 MOL     -0.754718
     68 H28        -5.2960   -0.3390   -0.4240 hn        1 MOL     -0.050039
     69 H29        -7.4720   -1.1930   -2.3160 h1        1 MOL      0.097798
     70 H30        -5.5670   -0.1910   -3.4610 hc        1 MOL      0.151231
     71 H31        -5.5480   -2.0250   -3.9050 hc        1 MOL      0.151231
     72 N7         -6.3120   -2.9720   -0.0400 n         1 MOL     -0.385063
     73 C23        -6.2240   -4.3210    0.5670 c3        1 MOL      0.003221
     74 C24        -4.8100   -4.9180    0.6000 c         1 MOL      0.356773
     75 O13        -4.6990   -6.0740    1.1400 o         1 MOL     -0.576775
     76 H32        -6.1490   -2.1880    0.5760 hn        1 MOL      0.279144
     77 H33        -6.9810   -4.9790    0.1260 h1        1 MOL      0.089863
     78 H34        -6.5690   -4.2440    1.6040 h1        1 MOL      0.089863
     79 N8         -3.7460   -4.2940    0.2290 n         1 MOL     -0.118122
     80 C25        -2.3540   -4.8010    0.3280 c3        1 MOL     -0.100596
     81 C26        -1.3200   -3.8320    0.7460 c         1 MOL      0.763776
     82 O14        -1.5450   -2.6180    0.5710 o         1 MOL     -0.772763
     83 C27        -1.9490   -5.5210   -0.9580 c3        1 MOL      0.359202
     84 C28        -2.5570   -6.9380   -0.9940 c3        1 MOL     -0.603362
     85 O15        -2.1500   -4.8220   -2.1860 oh        1 MOL     -0.614688
     86 H35        -3.8900   -3.3220    0.0120 hn        1 MOL      0.277914
     87 H36        -2.3120   -5.4920    1.1740 h1        1 MOL      0.078297
     88 H37        -0.8620   -5.6670   -0.9310 h1        1 MOL      0.042060
     89 H38        -3.0400   -4.4560   -2.2830 ho        1 MOL      0.405861
     90 H39        -2.4360   -7.4000   -0.0160 hc        1 MOL      0.165779
     91 H40        -3.6310   -6.9210   -1.2000 hc        1 MOL      0.165779
     92 H41        -2.0140   -7.4830   -1.7680 hc        1 MOL      0.165779
     93 N9         -0.2030   -4.3060    1.2070 n         1 MOL     -0.699591
     94 C29         0.9670   -3.4760    1.4530 c3        1 MOL      0.310394
     95 C30         2.0800   -3.7360    0.4310 c         1 MOL      0.361882
     96 O16         2.5630   -4.8780    0.3320 o         1 MOL     -0.526709
     97 C31         1.2950   -3.4770    2.9900 c3        1 MOL      0.020900
     98 C32         0.1590   -2.6230    3.6170 c3        1 MOL      0.009351
     99 C33         2.7100   -3.0800    3.3700 c3        1 MOL     -0.313601
    100 C34         0.1250   -2.4480    5.1280 c3        1 MOL     -0.324109
    101 H42        -0.1190   -5.3140    1.1760 hn        1 MOL      0.316468
    102 H43         0.6250   -2.4810    1.1710 h1        1 MOL     -0.095082
    103 H44         1.1680   -4.5010    3.3350 hc        1 MOL      0.034995
    104 H45        -0.8450   -2.9550    3.3640 hc        1 MOL      0.069840
    105 H46         0.2400   -1.6180    3.2110 hc        1 MOL      0.069840
    106 H47         3.4940   -3.5900    2.8080 hc        1 MOL      0.071116
    107 H48         2.7520   -2.0080    3.2350 hc        1 MOL      0.071116
    108 H49         2.8660   -3.2730    4.4330 hc        1 MOL      0.071116
    109 H50         1.0820   -2.0050    5.4000 hc        1 MOL      0.086221
    110 H51        -0.7460   -1.8940    5.4570 hc        1 MOL      0.086221
    111 H52         0.2710   -3.4020    5.6320 hc        1 MOL      0.086221
    112 N10         2.4740   -2.6450   -0.2800 n         1 MOL     -0.058012
    113 C35         3.5960   -2.6110   -1.2250 c3        1 MOL     -0.010706
    114 C36         4.9550   -2.3070   -0.5830 c         1 MOL      0.261124
    115 O17         4.9710   -1.8200    0.5640 o         1 MOL     -0.235104
    116 C37         3.4470   -1.6180   -2.3490 c3        1 MOL      0.101463
    117 C38         2.3380   -2.1300   -3.2770 c3        1 MOL     -0.170919
    118 O18         3.0940   -0.3380   -1.8270 oh        1 MOL     -0.554039
    119 H53         1.9680   -1.7950   -0.0860 hn        1 MOL      0.384133
    120 H54         3.6330   -3.6620   -1.5130 h1        1 MOL      0.058643
    121 H55         4.3310   -1.5610   -2.9820 h1        1 MOL      0.054593
    122 H56         2.1560   -0.3130   -1.6410 ho        1 MOL      0.284483
    123 H57         2.6680   -2.8150   -4.0670 hc        1 MOL      0.047547
    124 H58         1.6250   -2.5850   -2.5930 hc        1 MOL      0.047547
    125 H59         1.9610   -1.2980   -3.8640 hc        1 MOL      0.047547
    126 N11         6.0830   -2.4350   -1.2510 n         1 MOL     -0.248387
    127 C39         7.3750   -1.9840   -0.8020 c3        1 MOL     -0.088604
    128 C40         7.5000   -0.6010   -0.2130 c         1 MOL      0.298084
    129 O19         8.1190   -0.2460    0.7940 o         1 MOL     -0.451281
    130 C41         8.3930   -2.0390   -1.9770 c3        1 MOL      0.273672
    131 C42         8.8740   -3.4770   -2.3010 c3        1 MOL     -0.380230
    132 O20         7.8330   -1.4570   -3.0570 oh        1 MOL     -0.634687
    133 H60         6.0800   -2.8300   -2.1800 hn        1 MOL      0.282609
    134 H61         7.7640   -2.6450   -0.0300 h1        1 MOL      0.129175
    135 H62         9.3490   -1.5540   -1.7800 h1        1 MOL      0.072796
    136 H63         8.4750   -1.4350   -3.7750 ho        1 MOL      0.428348
    137 H64         9.1420   -4.0730   -1.4310 hc        1 MOL      0.103411
    138 H65         8.1700   -3.9380   -2.9930 hc        1 MOL      0.103411
    139 H66         9.8140   -3.3160   -2.8430 hc        1 MOL      0.103411
    140 N12         6.8410    0.2980   -0.9480 n         1 MOL     -0.217873
    141 C43         6.8150    1.7550   -0.6160 c3        1 MOL      0.003712
    142 C44         6.0130    1.9530    0.6940 c         1 MOL      0.451058
    143 O21         6.4360    2.7950    1.4710 o         1 MOL     -0.537848
    144 C45         6.2540    2.5710   -1.8360 c3        1 MOL     -0.279602
    145 C46         4.8370    2.2270   -2.2860 c3        1 MOL      0.011979
    146 C47         4.3020    2.7750   -3.6150 c3        1 MOL     -0.192463
    147 C48         2.9600    2.2230   -3.8850 c3        1 MOL      0.101059
    148 N13         2.4100    2.5030   -5.1990 n4        1 MOL     -0.481880
    149 H67         6.2880   -0.0230   -1.7290 hn        1 MOL      0.188008
    150 H68         7.7510    2.2700   -0.4130 h1        1 MOL      0.118248
    151 H69         6.8850    2.3420   -2.7040 hc        1 MOL      0.091274
    152 H70         6.3440    3.6160   -1.5490 hc        1 MOL      0.091274
    153 H71         4.1660    2.4110   -1.4420 hc        1 MOL      0.059785
    154 H72         4.8460    1.1470   -2.4350 hc        1 MOL      0.059785
    155 H73         5.0420    2.4010   -4.3190 hc        1 MOL      0.070658
    156 H74         4.3600    3.8660   -3.6670 hc        1 MOL      0.070658
    157 H75         2.2310    2.6270   -3.1740 hx        1 MOL      0.122927
    158 H76         2.9560    1.1410   -3.9010 hx        1 MOL      0.122927
    159 H77         1.5150    2.0490   -5.3130 hn        1 MOL      0.351376
    160 H78         2.3100    3.5060   -5.2810 hn        1 MOL      0.351376
    161 H79         3.0420    2.1740   -5.9130 hn        1 MOL      0.351376
    162 N14         4.9820    1.1760    0.9410 n         1 MOL      0.003136
    163 C49         4.0350    1.2020    2.0850 c3        1 MOL     -0.192282
    164 C50         4.5880    0.3720    3.2610 c         1 MOL      0.505918
    165 O22         4.4660    0.7370    4.4290 o         1 MOL     -0.553029
    166 C51         2.7200    0.5740    1.6410 c3        1 MOL      0.248494
    167 C52         2.0360    1.5240    0.7110 c3        1 MOL     -0.207374
    168 C53         0.7340    0.8550    0.3120 c         1 MOL      0.630959
    169 O23         0.7320   -0.2560   -0.1680 o         1 MOL     -0.634078
    170 O24        -0.3600    1.4210    0.4220 o         1 MOL     -0.634078
    171 H80         4.7060    0.5380    0.2070 hn        1 MOL     -0.090051
    172 H81         3.8610    2.2060    2.4500 h1        1 MOL      0.100355
    173 H82         2.0360    0.4170    2.4680 hc        1 MOL     -0.003030
    174 H83         3.0190   -0.3840    1.2050 hc        1 MOL     -0.003030
    175 H84         2.6050    1.7060   -0.2070 hc        1 MOL      0.035301
    176 H85         1.7880    2.4650    1.2160 hc        1 MOL      0.035301
    177 N15         5.3020   -0.7550    3.0130 n         1 MOL     -0.093560
    178 C54         5.9940   -1.5460    4.0060 c3        1 MOL     -0.517522
    179 H86         5.3070   -2.2760    4.4320 h1        1 MOL      0.171449
    180 H87         6.8320   -2.0650    3.5380 h1        1 MOL      0.171449
    181 H88         6.3660   -0.8940    4.7960 h1        1 MOL      0.171449
    182 H89         5.2880   -1.0680    2.0480 hn        1 MOL      0.114840
    183 Ca1        -1.8040   -0.2850   -0.8400 Ca        1 MOL      1.754975
    184 O25        -0.4050    0.5780   -3.1320 oh        1 MOL     -0.854986
    185 H90        -0.0900    0.3520   -4.0030 ho        1 MOL      0.394056
    186 H91        -1.0920    1.2280   -3.2930 ho        1 MOL      0.394056
    187 O26        -0.8070   -2.4570   -2.3090 oh        1 MOL     -0.854986
    188 H92        -1.1930   -2.2360   -3.1470 ho        1 MOL      0.394056
    189 H93        -1.0480   -3.3680   -2.1550 ho        1 MOL      0.394056
@<TRIPOS>BOND
     1    1    2 1   
     2    1    4 1   
     3    1    5 1   
     4    1    6 1   
     5    2    3 2   
     6    2    7 1   
     7    7    8 1   
     8    7   15 1   
     9    8    9 1   
    10    8   11 1   
    11    8   16 1   
    12    9   10 2   
    13    9   19 1   
    14   11   12 1   
    15   11   17 1   
    16   11   18 1   
    17   12   13 1   
    18   12   14 1   
    19   19   20 1   
    20   19   28 1   
    21   20   21 1   
    22   20   23 1   
    23   20   29 1   
    24   21   22 2   
    25   21   41 1   
    26   23   24 1   
    27   23   30 1   
    28   23   31 1   
    29   24   25 1   
    30   24   32 1   
    31   24   33 1   
    32   25   26 1   
    33   25   34 1   
    34   25   35 1   
    35   26   27 1   
    36   26   36 1   
    37   26   37 1   
    38   27   38 1   
    39   27   39 1   
    40   27   40 1   
    41   41   42 1   
    42   41   49 1   
    43   42   43 1   
    44   42   45 1   
    45   42   50 1   
    46   43   44 2   
    47   43   53 1   
    48   45   46 1   
    49   45   51 1   
    50   45   52 1   
    51   46   47 1   
    52   46   48 1   
    53   53   54 1   
    54   53   57 1   
    55   54   55 1   
    56   54   58 1   
    57   54   59 1   
    58   55   56 2   
    59   55   60 1   
    60   60   61 1   
    61   60   68 1   
    62   61   62 1   
    63   61   64 1   
    64   61   69 1   
    65   62   63 2   
    66   62   72 1   
    67   64   65 1   
    68   64   70 1   
    69   64   71 1   
    70   65   66 1   
    71   65   67 1   
    72   72   73 1   
    73   72   76 1   
    74   73   74 1   
    75   73   77 1   
    76   73   78 1   
    77   74   75 2   
    78   74   79 1   
    79   79   80 1   
    80   79   86 1   
    81   80   81 1   
    82   80   83 1   
    83   80   87 1   
    84   81   82 2   
    85   81   93 1   
    86   83   84 1   
    87   83   85 1   
    88   83   88 1   
    89   84   90 1   
    90   84   91 1   
    91   84   92 1   
    92   85   89 1   
    93   93   94 1   
    94   93  101 1   
    95   94   95 1   
    96   94   97 1   
    97   94  102 1   
    98   95   96 2   
    99   95  112 1   
   100   97   98 1   
   101   97   99 1   
   102   97  103 1   
   103   98  100 1   
   104   98  104 1   
   105   98  105 1   
   106   99  106 1   
   107   99  107 1   
   108   99  108 1   
   109  100  109 1   
   110  100  110 1   
   111  100  111 1   
   112  112  113 1   
   113  112  119 1   
   114  113  114 1   
   115  113  116 1   
   116  113  120 1   
   117  114  115 2   
   118  114  126 1   
   119  116  117 1   
   120  116  118 1   
   121  116  121 1   
   122  117  123 1   
   123  117  124 1   
   124  117  125 1   
   125  118  122 1   
   126  126  127 1   
   127  126  133 1   
   128  127  128 1   
   129  127  130 1   
   130  127  134 1   
   131  128  129 2   
   132  128  140 1   
   133  130  131 1   
   134  130  132 1   
   135  130  135 1   
   136  131  137 1   
   137  131  138 1   
   138  131  139 1   
   139  132  136 1   
   140  140  141 1   
   141  140  149 1   
   142  141  142 1   
   143  141  144 1   
   144  141  150 1   
   145  142  143 2   
   146  142  162 1   
   147  144  145 1   
   148  144  151 1   
   149  144  152 1   
   150  145  146 1   
   151  145  153 1   
   152  145  154 1   
   153  146  147 1   
   154  146  155 1   
   155  146  156 1   
   156  147  148 1   
   157  147  157 1   
   158  147  158 1   
   159  148  159 1   
   160  148  160 1   
   161  148  161 1   
   162  162  163 1   
   163  162  171 1   
   164  163  164 1   
   165  163  166 1   
   166  163  172 1   
   167  164  165 2   
   168  164  177 1   
   169  166  167 1   
   170  166  173 1   
   171  166  174 1   
   172  167  168 1   
   173  167  175 1   
   174  167  176 1   
   175  168  169 1   
   176  168  170 1   
   177  177  178 1   
   178  177  182 1   
   179  178  179 1   
   180  178  180 1   
   181  178  181 1   
   182  184  185 1   
   183  184  186 1   
   184  187  188 1   
   185  187  189 1   
@<TRIPOS>SUBSTRUCTURE
     1 MOL         1 TEMP              0 ****  ****    0 ROOT
