@<TRIPOS>MOLECULE
MOL
  183   181     1     0     0
SMALL
resp


@<TRIPOS>ATOM
      1 C1         -0.6130    1.8100    6.3660 c3        1 MOL     -0.332715
      2 C2         -0.9730    1.9110    4.8930 c         1 MOL      0.689309
      3 O1         -0.1290    2.2780    4.0610 o         1 MOL     -0.570888
      4 H1         -0.4560    2.8110    6.7710 hc        1 MOL      0.073993
      5 H2         -1.4260    1.3240    6.9070 hc        1 MOL      0.073993
      6 H3          0.2990    1.2260    6.4790 hc        1 MOL      0.073993
      7 N1         -2.1400    1.4180    4.5560 n         1 MOL     -0.500604
      8 C3         -2.6460    1.3850    3.2130 c3        1 MOL      0.054723
      9 C4         -3.0650    2.7820    2.7080 c         1 MOL      0.452205
     10 O2         -3.8060    3.4470    3.4150 o         1 MOL     -0.578871
     11 C5         -3.7410    0.3670    3.0980 c3        1 MOL     -0.047964
     12 C6         -4.5220    0.3330    1.8270 c         1 MOL      0.671449
     13 O3         -5.7200    0.0030    1.8050 o         1 MOL     -0.684659
     14 O4         -3.8590    0.4500    0.7910 o         1 MOL     -0.684659
     15 H4         -2.8440    1.1200    5.2110 hn        1 MOL      0.301805
     16 H5         -1.8130    1.0670    2.5740 h1        1 MOL      0.074878
     17 H6         -4.4360    0.4800    3.9280 hc        1 MOL     -0.004596
     18 H7         -3.3590   -0.6220    3.3430 hc        1 MOL     -0.004596
     19 N2         -2.4700    3.1410    1.5710 n         1 MOL      0.030796
     20 C7         -2.6200    4.4440    0.9960 c3        1 MOL      0.057876
     21 C8         -3.7750    4.5350   -0.0250 c         1 MOL      0.169253
     22 O5         -4.5650    5.5080   -0.0090 o         1 MOL     -0.528325
     23 C9         -1.3300    4.8850    0.2930 c3        1 MOL      0.324188
     24 C10        -0.0400    4.7180    1.1820 c3        1 MOL     -0.103720
     25 C11        -1.4330    6.3610   -0.2290 c3        1 MOL     -0.462209
     26 C12        -0.1570    5.5650    2.4120 c3        1 MOL     -0.082590
     27 H8         -1.8990    2.4200    1.1400 hn        1 MOL     -0.003791
     28 H9         -2.8410    5.2390    1.7090 h1        1 MOL      0.043055
     29 H10        -1.0890    4.2890   -0.5900 hc        1 MOL     -0.041595
     30 H11         0.8280    5.1340    0.6840 hc        1 MOL      0.051578
     31 H12         0.0300    3.6540    1.4210 hc        1 MOL      0.051578
     32 H13        -2.3190    6.3240   -0.8620 hc        1 MOL      0.107292
     33 H14        -1.5900    7.0590    0.5930 hc        1 MOL      0.107292
     34 H15        -0.5520    6.5690   -0.8210 hc        1 MOL      0.107292
     35 H16        -0.3880    6.5860    2.1190 hc        1 MOL      0.000657
     36 H17        -0.9540    5.2220    3.0810 hc        1 MOL      0.000657
     37 H18         0.8080    5.5610    2.9080 hc        1 MOL      0.000657
     38 N3         -3.8010    3.7380   -1.1010 n         1 MOL     -0.099788
     39 C13        -4.7520    3.7400   -2.1980 c3        1 MOL     -0.065393
     40 C14        -6.1140    3.0570   -1.8210 c         1 MOL      0.483364
     41 O6         -7.0330    3.0140   -2.6420 o         1 MOL     -0.554818
     42 C15        -4.1770    3.0830   -3.4930 c3        1 MOL     -0.171126
     43 C16        -3.6310    1.7380   -3.4340 c         1 MOL      0.801312
     44 O7         -3.5860    1.1060   -2.3260 o         1 MOL     -0.728933
     45 O8         -2.9740    1.3480   -4.4700 o         1 MOL     -0.728933
     46 H19        -3.1000    3.0220   -1.1490 hn        1 MOL      0.192181
     47 H20        -5.0610    4.7630   -2.4220 h1        1 MOL      0.095127
     48 H21        -3.4750    3.8250   -3.8970 hc        1 MOL      0.048485
     49 H22        -4.9700    3.0380   -4.2430 hc        1 MOL      0.048485
     50 N4         -6.1900    2.5230   -0.5950 n         1 MOL     -0.305358
     51 C17        -7.3850    1.9020   -0.0070 c3        1 MOL     -0.163625
     52 C18        -7.7500    0.5340   -0.3840 c         1 MOL      0.601668
     53 O9         -8.9120    0.2550   -0.2920 o         1 MOL     -0.626065
     54 H23        -5.3920    2.3440    0.0100 hn        1 MOL      0.285424
     55 H24        -8.2230    2.6030   -0.0350 h1        1 MOL      0.095449
     56 H25        -7.1900    1.8730    1.0550 h1        1 MOL      0.095449
     57 N5         -6.8310   -0.2830   -0.9150 n         1 MOL     -0.198827
     58 C19        -7.1590   -1.6540   -1.4720 c3        1 MOL     -0.175414
     59 C20        -7.2510   -2.8370   -0.5030 c         1 MOL      0.489339
     60 O10        -7.5940   -3.9410   -0.8750 o         1 MOL     -0.557679
     61 C21        -6.1590   -1.8460   -2.5270 c3        1 MOL      0.023405
     62 C22        -4.6980   -1.9200   -2.0370 c         1 MOL      0.658179
     63 O11        -3.8150   -1.9750   -2.9170 o         1 MOL     -0.740282
     64 O12        -4.4090   -2.0640   -0.8690 o         1 MOL     -0.740282
     65 H26        -5.8940    0.0250   -0.7020 hn        1 MOL      0.075940
     66 H27        -8.1640   -1.6140   -1.8900 h1        1 MOL      0.120859
     67 H28        -6.2300   -1.1790   -3.3930 hc        1 MOL      0.014444
     68 H29        -6.3370   -2.8110   -3.0070 hc        1 MOL      0.014444
     69 N6         -6.8380   -2.5930    0.7380 n         1 MOL     -0.273577
     70 C23        -6.6600   -3.5340    1.8400 c3        1 MOL      0.124664
     71 C24        -5.3840   -4.3770    1.8180 c         1 MOL      0.492896
     72 O13        -5.4480   -5.5220    2.1920 o         1 MOL     -0.595002
     73 H30        -6.4600   -1.6710    0.8500 hn        1 MOL      0.245862
     74 H31        -7.5460   -4.1460    2.0310 h1        1 MOL     -0.007391
     75 H32        -6.6500   -2.8940    2.7150 h1        1 MOL     -0.007391
     76 N7         -4.2830   -3.8200    1.3880 n         1 MOL     -0.229347
     77 C25        -2.9640   -4.3540    1.4170 c3        1 MOL     -0.009327
     78 C26        -1.8830   -3.2780    1.4940 c         1 MOL      0.525267
     79 O14        -2.2350   -2.1060    1.3380 o         1 MOL     -0.606593
     80 C27        -2.7360   -5.3970    0.3230 c3        1 MOL      0.125698
     81 C28        -2.8510   -4.9120   -1.1900 c3        1 MOL     -0.266124
     82 C29        -1.5880   -4.1710   -1.6730 c         1 MOL      0.627508
     83 N8         -0.8420   -4.8430   -2.5200 n         1 MOL     -0.761701
     84 O15        -1.2960   -3.0340   -1.4200 o         1 MOL     -0.579392
     85 H33        -4.3950   -2.8370    1.1760 hn        1 MOL      0.263776
     86 H34        -2.8510   -5.0500    2.2530 h1        1 MOL      0.036676
     87 H35        -3.3470   -6.3010    0.3700 hc        1 MOL     -0.038449
     88 H36        -1.7040   -5.6990    0.4810 hc        1 MOL     -0.038449
     89 H37        -3.7640   -4.3590   -1.4110 hc        1 MOL      0.109674
     90 H38        -2.9780   -5.7590   -1.8740 hc        1 MOL      0.109674
     91 H39        -1.0380   -5.8050   -2.7840 hn        1 MOL      0.350896
     92 H40        -0.0830   -4.2340   -2.8050 hn        1 MOL      0.350896
     93 N9         -0.5960   -3.5700    1.6620 n         1 MOL     -0.401471
     94 C30         0.5110   -2.6170    1.8500 c3        1 MOL      0.003964
     95 C31         1.7800   -2.9900    1.0790 c         1 MOL      0.394155
     96 O16         2.5480   -3.9020    1.4140 o         1 MOL     -0.551406
     97 C32         0.8270   -2.4010    3.4010 c3        1 MOL      0.251888
     98 C33         1.6550   -1.1030    3.5710 c3        1 MOL     -0.153438
     99 C34        -0.4260   -2.5710    4.2860 c3        1 MOL     -0.153438
    100 H41        -0.3640   -4.5460    1.7370 hn        1 MOL      0.291771
    101 H42         0.1100   -1.6690    1.5000 h1        1 MOL      0.063929
    102 H43         1.4720   -3.2480    3.6510 hc        1 MOL     -0.062283
    103 H44         2.1910   -1.1140    4.5300 hc        1 MOL      0.022781
    104 H45         2.3660   -0.9440    2.7650 hc        1 MOL      0.022781
    105 H46         1.0090   -0.2280    3.5820 hc        1 MOL      0.022781
    106 H47        -0.0730   -2.5780    5.3170 hc        1 MOL      0.022781
    107 H48        -1.0890   -1.7070    4.2860 hc        1 MOL      0.022781
    108 H49        -0.9450   -3.5120    4.1200 hc        1 MOL      0.022781
    109 N10         1.9740   -2.2640   -0.0250 n         1 MOL     -0.141835
    110 C35         3.0490   -2.5540   -0.9880 c3        1 MOL      0.013466
    111 C36         4.3150   -1.8950   -0.4100 c         1 MOL      0.440252
    112 O17         4.1870   -1.0020    0.3910 o         1 MOL     -0.327989
    113 C37         2.7290   -1.7700   -2.3240 c3        1 MOL     -0.297763
    114 C38         2.0980   -2.8170   -3.2830 c         1 MOL      0.535312
    115 N11         0.8840   -2.5630   -3.7830 n         1 MOL     -0.573712
    116 O18         2.7920   -3.8140   -3.7310 o         1 MOL     -0.584877
    117 H50         1.4120   -1.4280   -0.0520 hn        1 MOL      0.112485
    118 H51         3.3000   -3.6130   -1.0370 h1        1 MOL      0.091382
    119 H52         3.6740   -1.4340   -2.7530 hc        1 MOL      0.128258
    120 H53         2.0930   -0.8880   -2.2360 hc        1 MOL      0.128258
    121 H54         0.4330   -1.6940   -3.5130 hn        1 MOL      0.318059
    122 H55         0.6270   -2.8940   -4.7000 hn        1 MOL      0.318059
    123 N12         5.5250   -2.2830   -0.7860 n         1 MOL     -0.537136
    124 C39         6.8210   -1.7170   -0.2760 c3        1 MOL      0.105443
    125 C40         6.8600   -0.1630   -0.2820 c         1 MOL      0.652610
    126 O19         7.2730    0.4560    0.6890 o         1 MOL     -0.546053
    127 C41         7.9660   -2.3420   -1.0830 c3        1 MOL     -0.005616
    128 C42         9.2820   -1.9990   -0.4460 ca        1 MOL     -0.023326
    129 C43         9.6390   -2.5520    0.7750 ca        1 MOL     -0.150348
    130 C44        10.0420   -0.9510   -0.9700 ca        1 MOL     -0.150348
    131 C45        10.8950   -2.2400    1.3990 ca        1 MOL     -0.247355
    132 C46        11.2360   -0.5720   -0.2840 ca        1 MOL     -0.247355
    133 C47        11.6920   -1.2570    0.8930 ca        1 MOL      0.341549
    134 O20        12.8440   -0.9750    1.5840 oh        1 MOL     -0.531821
    135 H56         5.5070   -3.0840   -1.4030 hn        1 MOL      0.285400
    136 H57         7.0600   -1.9920    0.7500 h1        1 MOL      0.058706
    137 H58         7.9200   -2.0330   -2.1310 hc        1 MOL      0.020250
    138 H59         7.9860   -3.4350   -1.0770 hc        1 MOL      0.020250
    139 H60         8.9750   -3.2200    1.2950 ha        1 MOL      0.139945
    140 H61         9.6910   -0.3640   -1.8080 ha        1 MOL      0.139945
    141 H62        11.2610   -2.8020    2.2450 ha        1 MOL      0.133371
    142 H63        11.7900    0.3130   -0.5460 ha        1 MOL      0.133371
    143 H64        13.3710   -0.2220    1.2910 ho        1 MOL      0.381272
    144 N13         6.4760    0.4780   -1.3850 n         1 MOL     -0.482390
    145 C48         6.5670    1.9410   -1.4690 c3        1 MOL     -0.004446
    146 C49         5.5950    2.7220   -0.4910 c         1 MOL      0.370054
    147 O21         5.7660    3.8830   -0.0430 o         1 MOL     -0.524671
    148 C50         6.2380    2.3440   -2.9230 c3        1 MOL      0.058197
    149 C51         4.8260    2.0720   -3.4490 c3        1 MOL     -0.026717
    150 C52         4.3800    3.0580   -4.5610 c         1 MOL      0.699917
    151 O22         5.2000    3.3250   -5.4960 o         1 MOL     -0.726077
    152 O23         3.2120    3.5030   -4.4480 o         1 MOL     -0.726077
    153 H65         6.2620   -0.0770   -2.2090 hn        1 MOL      0.320398
    154 H66         7.5670    2.3440   -1.2940 h1        1 MOL      0.061543
    155 H67         6.9530    1.9550   -3.6460 hc        1 MOL     -0.020647
    156 H68         6.4020    3.4230   -2.8920 hc        1 MOL     -0.020647
    157 H69         4.1210    2.2600   -2.6430 hc        1 MOL     -0.068679
    158 H70         4.8500    1.0140   -3.7180 hc        1 MOL     -0.068679
    159 N14         4.5170    2.0670   -0.0620 n         1 MOL     -0.080187
    160 C53         3.5920    2.4550    1.0740 c3        1 MOL     -0.092465
    161 C54         4.0860    2.1540    2.4600 c         1 MOL      0.444489
    162 O24         3.9250    2.9910    3.3880 o         1 MOL     -0.533442
    163 C55         2.2590    1.7450    0.8630 c3        1 MOL      0.052917
    164 C56         1.4410    2.0200   -0.4330 c3        1 MOL      0.096065
    165 C57         0.1820    1.2120   -0.5520 c         1 MOL      0.736946
    166 O25        -0.9100    1.7460   -0.7920 o         1 MOL     -0.754053
    167 O26         0.2460   -0.0640   -0.5510 o         1 MOL     -0.754053
    168 H71         4.3360    1.1560   -0.4770 hn        1 MOL      0.112206
    169 H72         3.3500    3.5020    0.9510 h1        1 MOL      0.105988
    170 H73         1.5610    1.9680    1.6580 hc        1 MOL      0.014603
    171 H74         2.3980    0.6730    0.9560 hc        1 MOL      0.014603
    172 H75         2.0250    1.7340   -1.3090 hc        1 MOL     -0.019554
    173 H76         1.2690    3.0920   -0.5010 hc        1 MOL     -0.019554
    174 N15         4.8670    1.0390    2.6040 n         1 MOL     -0.092331
    175 C58         5.5890    0.7790    3.8850 c3        1 MOL     -0.206303
    176 H77         5.8100    1.7260    4.3770 h1        1 MOL      0.080709
    177 H78         4.9650    0.1680    4.5360 h1        1 MOL      0.080709
    178 H79         6.5210    0.2530    3.6760 h1        1 MOL      0.080709
    179 H80         4.8530    0.3480    1.8620 hn        1 MOL      0.083669
    180 Ca1        -2.2790   -0.5440   -1.1140 Ca        1 MOL      1.756768
    181 O27        -0.9750   -0.1690   -3.6320 oh        1 MOL     -0.890621
    182 H81        -0.3520    0.5240   -3.8810 ho        1 MOL      0.432061
    183 H82        -1.8190    0.1350   -3.9670 ho        1 MOL      0.432061
@<TRIPOS>BOND
     1    1    2 1   
     2    1    4 1   
     3    1    5 1   
     4    1    6 1   
     5    2    3 2   
     6    2    7 1   
     7    7    8 1   
     8    7   15 1   
     9    8    9 1   
    10    8   11 1   
    11    8   16 1   
    12    9   10 2   
    13    9   19 1   
    14   11   12 1   
    15   11   17 1   
    16   11   18 1   
    17   12   13 1   
    18   12   14 1   
    19   19   20 1   
    20   19   27 1   
    21   20   21 1   
    22   20   23 1   
    23   20   28 1   
    24   21   22 2   
    25   21   38 1   
    26   23   24 1   
    27   23   25 1   
    28   23   29 1   
    29   24   26 1   
    30   24   30 1   
    31   24   31 1   
    32   25   32 1   
    33   25   33 1   
    34   25   34 1   
    35   26   35 1   
    36   26   36 1   
    37   26   37 1   
    38   38   39 1   
    39   38   46 1   
    40   39   40 1   
    41   39   42 1   
    42   39   47 1   
    43   40   41 2   
    44   40   50 1   
    45   42   43 1   
    46   42   48 1   
    47   42   49 1   
    48   43   44 1   
    49   43   45 1   
    50   50   51 1   
    51   50   54 1   
    52   51   52 1   
    53   51   55 1   
    54   51   56 1   
    55   52   53 2   
    56   52   57 1   
    57   57   58 1   
    58   57   65 1   
    59   58   59 1   
    60   58   61 1   
    61   58   66 1   
    62   59   60 2   
    63   59   69 1   
    64   61   62 1   
    65   61   67 1   
    66   61   68 1   
    67   62   63 1   
    68   62   64 1   
    69   69   70 1   
    70   69   73 1   
    71   70   71 1   
    72   70   74 1   
    73   70   75 1   
    74   71   72 2   
    75   71   76 1   
    76   76   77 1   
    77   76   85 1   
    78   77   78 1   
    79   77   80 1   
    80   77   86 1   
    81   78   79 2   
    82   78   93 1   
    83   80   81 1   
    84   80   87 1   
    85   80   88 1   
    86   81   82 1   
    87   81   89 1   
    88   81   90 1   
    89   82   83 1   
    90   82   84 2   
    91   83   91 1   
    92   83   92 1   
    93   93   94 1   
    94   93  100 1   
    95   94   95 1   
    96   94   97 1   
    97   94  101 1   
    98   95   96 2   
    99   95  109 1   
   100   97   98 1   
   101   97   99 1   
   102   97  102 1   
   103   98  103 1   
   104   98  104 1   
   105   98  105 1   
   106   99  106 1   
   107   99  107 1   
   108   99  108 1   
   109  109  110 1   
   110  109  117 1   
   111  110  111 1   
   112  110  113 1   
   113  110  118 1   
   114  111  112 2   
   115  111  123 1   
   116  113  114 1   
   117  113  119 1   
   118  113  120 1   
   119  114  115 1   
   120  114  116 2   
   121  115  121 1   
   122  115  122 1   
   123  123  124 1   
   124  123  135 1   
   125  124  125 1   
   126  124  127 1   
   127  124  136 1   
   128  125  126 2   
   129  125  144 1   
   130  127  128 1   
   131  127  137 1   
   132  127  138 1   
   133  128  129 ar  
   134  128  130 ar  
   135  129  131 ar  
   136  129  139 1   
   137  130  132 ar  
   138  130  140 1   
   139  131  133 ar  
   140  131  141 1   
   141  132  133 ar  
   142  132  142 1   
   143  133  134 1   
   144  134  143 1   
   145  144  145 1   
   146  144  153 1   
   147  145  146 1   
   148  145  148 1   
   149  145  154 1   
   150  146  147 2   
   151  146  159 1   
   152  148  149 1   
   153  148  155 1   
   154  148  156 1   
   155  149  150 1   
   156  149  157 1   
   157  149  158 1   
   158  150  151 1   
   159  150  152 1   
   160  159  160 1   
   161  159  168 1   
   162  160  161 1   
   163  160  163 1   
   164  160  169 1   
   165  161  162 2   
   166  161  174 1   
   167  163  164 1   
   168  163  170 1   
   169  163  171 1   
   170  164  165 1   
   171  164  172 1   
   172  164  173 1   
   173  165  166 1   
   174  165  167 1   
   175  174  175 1   
   176  174  179 1   
   177  175  176 1   
   178  175  177 1   
   179  175  178 1   
   180  181  182 1   
   181  181  183 1   
@<TRIPOS>SUBSTRUCTURE
     1 MOL         1 TEMP              0 ****  ****    0 ROOT
