@<TRIPOS>MOLECULE
MOL
  189   185     1     0     0
SMALL
resp


@<TRIPOS>ATOM
      1 C1         -0.4040   -4.4520    5.7070 c3        1 MOL     -0.335250
      2 C2          0.3800   -3.9090    4.4520 c         1 MOL      0.726638
      3 O1          0.7690   -2.7130    4.4490 o         1 MOL     -0.634454
      4 H1         -0.6370   -3.6230    6.3760 hc        1 MOL      0.083846
      5 H2         -1.3300   -4.9260    5.3810 hc        1 MOL      0.083846
      6 H3          0.2110   -5.1800    6.2340 hc        1 MOL      0.083846
      7 N1          0.5190   -4.7500    3.4280 n         1 MOL     -0.611334
      8 C3          1.1080   -4.4220    2.1230 c3        1 MOL      0.228215
      9 C4          0.4440   -5.2300    0.9560 c         1 MOL      0.508135
     10 O2          0.0610   -6.3830    1.1550 o         1 MOL     -0.577097
     11 C5          2.6900   -4.5100    2.2050 c3        1 MOL     -0.267959
     12 C6          3.4030   -3.6860    1.1030 c         1 MOL      0.800421
     13 O3          4.6510   -3.8260    1.0870 o         1 MOL     -0.707265
     14 O4          2.9220   -2.8830    0.2670 o         1 MOL     -0.707265
     15 H4          0.1290   -5.6710    3.5940 hn        1 MOL      0.304247
     16 H5          0.8510   -3.3700    1.9880 h1        1 MOL      0.101828
     17 H6          3.0820   -5.5190    2.0900 hc        1 MOL      0.065912
     18 H7          3.0130   -4.1700    3.1890 hc        1 MOL      0.065912
     19 N2          0.4030   -4.5360   -0.1740 n         1 MOL     -0.374756
     20 C7         -0.0520   -5.0900   -1.4940 c3        1 MOL      0.026589
     21 C8          1.0330   -4.8420   -2.5790 c         1 MOL      0.555984
     22 O5          0.9740   -5.4830   -3.6100 o         1 MOL     -0.582948
     23 C9         -1.4970   -4.5370   -1.9540 c3        1 MOL      0.309872
     24 C10        -2.6300   -5.0620   -1.0410 c3        1 MOL     -0.160764
     25 C11        -1.8240   -4.9910   -3.4160 c3        1 MOL     -0.323291
     26 C12        -3.9490   -4.2820   -1.0630 c3        1 MOL     -0.042438
     27 H8          0.5520   -3.5400   -0.0520 hn        1 MOL      0.191816
     28 H9         -0.0450   -6.1730   -1.3620 h1        1 MOL      0.050057
     29 H10        -1.3770   -3.4580   -1.8680 hc        1 MOL     -0.025848
     30 H11        -2.2530   -5.1000   -0.0200 hc        1 MOL      0.022455
     31 H12        -2.7930   -6.1240   -1.2680 hc        1 MOL      0.022455
     32 H13        -1.4830   -6.0200   -3.5330 hc        1 MOL      0.066373
     33 H14        -2.8980   -4.8910   -3.5820 hc        1 MOL      0.066373
     34 H15        -1.2650   -4.4010   -4.1420 hc        1 MOL      0.066373
     35 H16        -4.7390   -4.6910   -0.4300 hc        1 MOL      0.023387
     36 H17        -3.8350   -3.2490   -0.7620 hc        1 MOL      0.023387
     37 H18        -4.2680   -4.2740   -2.1070 hc        1 MOL      0.023387
     38 N3          1.9820   -3.9440   -2.3870 n         1 MOL     -0.426987
     39 C13         2.9230   -3.4400   -3.4030 c3        1 MOL      0.097203
     40 C14         4.3600   -3.0980   -3.0040 c         1 MOL      0.364983
     41 O6          5.2090   -2.9190   -3.8890 o         1 MOL     -0.554254
     42 C15         2.3090   -2.2270   -4.2100 c3        1 MOL     -0.237224
     43 C16         2.0730   -0.9500   -3.3350 c         1 MOL      0.808835
     44 O7          2.6160   -0.8300   -2.2130 o         1 MOL     -0.746699
     45 O8          1.2360   -0.0490   -3.7180 o         1 MOL     -0.746699
     46 H19         2.0240   -3.4820   -1.4870 hn        1 MOL      0.216757
     47 H20         3.0300   -4.2150   -4.1640 h1        1 MOL      0.082293
     48 H21         1.3240   -2.4870   -4.6090 hc        1 MOL      0.061616
     49 H22         2.9920   -1.9480   -5.0180 hc        1 MOL      0.061616
     50 N4          4.8220   -3.2450   -1.7390 n         1 MOL     -0.092557
     51 C17         6.2890   -3.3240   -1.4670 c3        1 MOL     -0.342532
     52 C18         7.1300   -2.0690   -1.4400 c         1 MOL      0.537631
     53 O9          8.3670   -2.1180   -1.1800 o         1 MOL     -0.592068
     54 H23         4.1710   -3.3700   -0.9720 hn        1 MOL      0.122799
     55 H24         6.6070   -4.0390   -2.2330 h1        1 MOL      0.137768
     56 H25         6.3500   -3.7580   -0.4750 h1        1 MOL      0.137768
     57 N5          6.4610   -0.9000   -1.6740 n         1 MOL     -0.144367
     58 C19         7.0690    0.2790   -2.0780 c3        1 MOL     -0.153973
     59 C20         7.8010    1.1120   -1.0270 c         1 MOL      0.526147
     60 O10         8.7320    1.8270   -1.3960 o         1 MOL     -0.572990
     61 C21         5.9220    1.0990   -2.7820 c3        1 MOL     -0.211572
     62 C22         4.6390    1.3890   -1.9190 c         1 MOL      0.630907
     63 O11         4.6450    0.9700   -0.7520 o         1 MOL     -0.657797
     64 O12         3.7460    2.1170   -2.4120 o         1 MOL     -0.657797
     65 H26         5.4740   -0.9870   -1.8660 hn        1 MOL      0.270833
     66 H27         7.7220    0.0050   -2.9050 h1        1 MOL      0.097013
     67 H28         5.5390    0.5630   -3.6580 hc        1 MOL      0.071429
     68 H29         6.3760    2.0170   -3.1490 hc        1 MOL      0.071429
     69 N6          7.4140    1.0510    0.2270 n         1 MOL     -0.220954
     70 C23         7.8480    1.9740    1.2900 c3        1 MOL     -0.165259
     71 C24         6.9500    3.1730    1.4330 c         1 MOL      0.618106
     72 O13         7.4010    4.1710    1.9870 o         1 MOL     -0.587013
     73 H30         6.5680    0.5000    0.3280 hn        1 MOL      0.095299
     74 H31         8.8060    2.3910    0.9750 h1        1 MOL      0.090555
     75 H32         7.9470    1.4760    2.2490 h1        1 MOL      0.090555
     76 N7          5.6270    3.0060    1.0880 n         1 MOL     -0.461310
     77 C25         4.4800    3.8660    1.4450 c3        1 MOL     -0.045451
     78 C26         3.2340    2.9700    1.7680 c         1 MOL      0.553066
     79 O14         3.2630    1.7590    1.6670 o         1 MOL     -0.536608
     80 C27         4.1540    4.8460    0.3150 c3        1 MOL      0.093247
     81 C28         5.2930    5.8580    0.0530 c3        1 MOL     -0.432178
     82 C29         4.7880    6.9490   -0.7390 c         1 MOL      0.764945
     83 N8          4.7520    6.9000   -2.0160 n         1 MOL     -0.799594
     84 O15         4.4180    7.9730   -0.2190 o         1 MOL     -0.628746
     85 H33         5.4510    2.1230    0.6350 hn        1 MOL      0.370558
     86 H34         4.7540    4.4320    2.3460 h1        1 MOL      0.096504
     87 H35         3.2710    5.4080    0.6340 hc        1 MOL      0.045491
     88 H36         3.7420    4.3840   -0.5940 hc        1 MOL      0.045491
     89 H37         6.0800    5.3710   -0.5190 hc        1 MOL      0.130840
     90 H38         5.6950    6.2190    1.0060 hc        1 MOL      0.130840
     91 H39         4.9550    6.0490   -2.5240 hn        1 MOL      0.356441
     92 H40         4.5100    7.7140   -2.5580 hn        1 MOL      0.356441
     93 N9          2.0730    3.5680    2.1260 n         1 MOL     -0.598212
     94 C30         0.7650    2.9010    2.2490 c3        1 MOL      0.388225
     95 C31        -0.2770    3.3600    1.2180 c         1 MOL      0.283017
     96 O16        -0.2510    4.4950    0.7620 o         1 MOL     -0.566214
     97 C32         0.2670    3.1000    3.6530 c3        1 MOL      0.281896
     98 C33        -1.2510    2.8690    3.8830 c3        1 MOL     -0.328405
     99 C34         1.0720    2.2300    4.6790 c3        1 MOL     -0.328405
    100 H41         2.0170    4.5680    2.0960 hn        1 MOL      0.274643
    101 H42         0.8360    1.8250    2.1450 h1        1 MOL     -0.115066
    102 H43         0.4400    4.1550    3.8920 hc        1 MOL     -0.063064
    103 H44        -1.4710    2.9640    4.9430 hc        1 MOL      0.065327
    104 H45        -1.7540    3.6740    3.3420 hc        1 MOL      0.065327
    105 H46        -1.4870    1.8690    3.5220 hc        1 MOL      0.065327
    106 H47         2.1470    2.2530    4.4790 hc        1 MOL      0.065327
    107 H48         0.8550    2.6770    5.6550 hc        1 MOL      0.065327
    108 H49         0.6530    1.2350    4.5540 hc        1 MOL      0.065327
    109 N10        -1.0730    2.4550    0.7810 n         1 MOL     -0.120798
    110 C35        -2.1840    2.7400   -0.1390 c3        1 MOL      0.176786
    111 C36        -3.6060    2.5710    0.6680 c         1 MOL      0.053326
    112 O17        -3.5910    2.1340    1.8100 o         1 MOL     -0.248230
    113 C37        -2.1730    1.8120   -1.3720 c3        1 MOL     -0.375170
    114 C38        -3.3390    1.9500   -2.3900 c         1 MOL      0.844606
    115 N11        -3.2670    2.7020   -3.4690 n         1 MOL     -0.835544
    116 O18        -4.3730    1.3960   -2.2070 o         1 MOL     -0.636326
    117 H50        -0.8300    1.5100    1.0500 hn        1 MOL      0.320792
    118 H51        -2.0900    3.7470   -0.5650 h1        1 MOL      0.054234
    119 H52        -2.2670    0.8050   -0.9780 hc        1 MOL      0.121047
    120 H53        -1.2460    1.9460   -1.9410 hc        1 MOL      0.121047
    121 H54        -2.4840    3.3040   -3.7020 hn        1 MOL      0.361823
    122 H55        -4.0080    2.6190   -4.1550 hn        1 MOL      0.361823
    123 N12        -4.7760    2.9440    0.1110 n         1 MOL     -0.070954
    124 C39        -6.0080    2.8290    0.8300 c3        1 MOL      0.074906
    125 C40        -6.5120    1.4340    1.1230 c         1 MOL      0.444021
    126 O19        -7.0780    1.2220    2.1370 o         1 MOL     -0.557531
    127 C41        -6.9970    3.6810    0.0370 c3        1 MOL     -0.275897
    128 C42        -7.1010    3.4740   -1.4390 ca        1 MOL      0.007106
    129 C43        -6.4720    4.3610   -2.3490 ca        1 MOL     -0.064885
    130 C44        -7.8210    2.3780   -1.9100 ca        1 MOL     -0.064885
    131 C45        -6.6130    4.1410   -3.7030 ca        1 MOL     -0.311605
    132 C46        -7.8930    2.1310   -3.2800 ca        1 MOL     -0.311605
    133 C47        -7.3540    3.0480   -4.1960 ca        1 MOL      0.450105
    134 O20        -7.6030    2.9630   -5.5910 oh        1 MOL     -0.640273
    135 H56        -4.7450    3.3350   -0.8180 hn        1 MOL      0.106934
    136 H57        -5.8840    3.2770    1.8170 h1        1 MOL      0.058890
    137 H58        -6.8140    4.7140    0.3050 hc        1 MOL      0.092476
    138 H59        -8.0010    3.4730    0.4110 hc        1 MOL      0.092476
    139 H60        -5.9970    5.2490   -1.9380 ha        1 MOL      0.097309
    140 H61        -8.2940    1.6850   -1.2370 ha        1 MOL      0.097309
    141 H62        -6.1830    4.7990   -4.4480 ha        1 MOL      0.133440
    142 H63        -8.4280    1.3070   -3.7190 ha        1 MOL      0.133440
    143 H64        -7.8550    2.0890   -5.8880 ho        1 MOL      0.433286
    144 N13        -6.3430    0.4760    0.1880 n         1 MOL      0.021554
    145 C48        -6.4900   -0.9560    0.3760 c3        1 MOL     -0.250805
    146 C49        -5.6980   -1.6080    1.5210 c         1 MOL      0.481097
    147 O21        -6.1380   -2.6260    2.0990 o         1 MOL     -0.542157
    148 C50        -6.0960   -1.7170   -0.8830 c3        1 MOL      0.117728
    149 C51        -6.9610   -1.2400   -2.0520 c3        1 MOL     -0.102137
    150 C52        -8.4410   -1.4550   -1.9020 c         1 MOL      0.626714
    151 O22        -8.8380   -2.6510   -1.8360 o         1 MOL     -0.695308
    152 O23        -9.2550   -0.4880   -1.8550 o         1 MOL     -0.695308
    153 H65        -5.9120    0.7680   -0.6790 hn        1 MOL      0.144661
    154 H66        -7.5170   -1.2200    0.6430 h1        1 MOL      0.150118
    155 H67        -6.2900   -2.7860   -0.7800 hc        1 MOL     -0.017617
    156 H68        -5.0710   -1.5250   -1.2100 hc        1 MOL     -0.017617
    157 H69        -6.7140   -1.7640   -2.9730 hc        1 MOL      0.011354
    158 H70        -6.7820   -0.1920   -2.3160 hc        1 MOL      0.011354
    159 N14        -4.5770   -1.0230    1.9150 n         1 MOL     -0.203827
    160 C53        -3.6840   -1.4010    2.9660 c3        1 MOL     -0.055521
    161 C54        -4.1090   -0.6710    4.1940 c         1 MOL      0.464432
    162 O24        -4.2890   -1.2510    5.2520 o         1 MOL     -0.566005
    163 C55        -2.2290   -1.0360    2.5680 c3        1 MOL     -0.001163
    164 C56        -1.8050   -1.6000    1.1710 c3        1 MOL      0.022610
    165 C57        -0.3490   -1.1970    0.7920 c         1 MOL      0.281406
    166 O25         0.1860   -1.6510   -0.2350 o         1 MOL     -0.555660
    167 O26         0.2540   -0.3730    1.5240 o         1 MOL     -0.555660
    168 H71        -4.4290   -0.1780    1.3810 hn        1 MOL      0.120616
    169 H72        -3.7240   -2.4710    3.2010 h1        1 MOL      0.082615
    170 H73        -1.6040   -1.4930    3.3390 hc        1 MOL      0.023949
    171 H74        -2.0120    0.0300    2.5820 hc        1 MOL      0.023949
    172 H75        -2.4930   -1.3030    0.3910 hc        1 MOL      0.027942
    173 H76        -1.9590   -2.6700    1.2720 hc        1 MOL      0.027942
    174 N15        -4.3400    0.6610    4.1460 n         1 MOL     -0.023859
    175 C58        -4.7160    1.4790    5.2910 c3        1 MOL     -0.300583
    176 H77        -3.8990    1.4920    6.0120 h1        1 MOL      0.097008
    177 H78        -4.9230    2.4960    4.9580 h1        1 MOL      0.097008
    178 H79        -5.6060    1.0610    5.7610 h1        1 MOL      0.097008
    179 H80        -4.1160    1.1460    3.2860 hn        1 MOL      0.030965
    180 Ca1         2.6040   -0.2980    0.3500 Ca        1 MOL      1.735351
    181 O27         2.8610   -1.2890    2.9590 oh        1 MOL     -0.899043
    182 H81         2.0580   -1.5600    3.4000 ho        1 MOL      0.427943
    183 H82         3.4830   -1.1250    3.6640 ho        1 MOL      0.427943
    184 O28         5.1670   -0.9600    1.1450 oh        1 MOL     -0.899043
    185 H83         5.3490   -1.8980    1.0140 ho        1 MOL      0.427943
    186 H84         5.7320   -0.7040    1.8750 ho        1 MOL      0.427943
    187 O29         1.4920    1.5150   -1.1110 oh        1 MOL     -0.899043
    188 H85         1.1140    0.9850   -1.8090 ho        1 MOL      0.427943
    189 H86         2.3170    1.8340   -1.4730 ho        1 MOL      0.427943
@<TRIPOS>BOND
     1    1    2 1   
     2    1    4 1   
     3    1    5 1   
     4    1    6 1   
     5    2    3 2   
     6    2    7 1   
     7    7    8 1   
     8    7   15 1   
     9    8    9 1   
    10    8   11 1   
    11    8   16 1   
    12    9   10 2   
    13    9   19 1   
    14   11   12 1   
    15   11   17 1   
    16   11   18 1   
    17   12   13 1   
    18   12   14 1   
    19   19   20 1   
    20   19   27 1   
    21   20   21 1   
    22   20   23 1   
    23   20   28 1   
    24   21   22 2   
    25   21   38 1   
    26   23   24 1   
    27   23   25 1   
    28   23   29 1   
    29   24   26 1   
    30   24   30 1   
    31   24   31 1   
    32   25   32 1   
    33   25   33 1   
    34   25   34 1   
    35   26   35 1   
    36   26   36 1   
    37   26   37 1   
    38   38   39 1   
    39   38   46 1   
    40   39   40 1   
    41   39   42 1   
    42   39   47 1   
    43   40   41 2   
    44   40   50 1   
    45   42   43 1   
    46   42   48 1   
    47   42   49 1   
    48   43   44 1   
    49   43   45 1   
    50   50   51 1   
    51   50   54 1   
    52   51   52 1   
    53   51   55 1   
    54   51   56 1   
    55   52   53 2   
    56   52   57 1   
    57   57   58 1   
    58   57   65 1   
    59   58   59 1   
    60   58   61 1   
    61   58   66 1   
    62   59   60 2   
    63   59   69 1   
    64   61   62 1   
    65   61   67 1   
    66   61   68 1   
    67   62   63 1   
    68   62   64 1   
    69   69   70 1   
    70   69   73 1   
    71   70   71 1   
    72   70   74 1   
    73   70   75 1   
    74   71   72 2   
    75   71   76 1   
    76   76   77 1   
    77   76   85 1   
    78   77   78 1   
    79   77   80 1   
    80   77   86 1   
    81   78   79 2   
    82   78   93 1   
    83   80   81 1   
    84   80   87 1   
    85   80   88 1   
    86   81   82 1   
    87   81   89 1   
    88   81   90 1   
    89   82   83 1   
    90   82   84 2   
    91   83   91 1   
    92   83   92 1   
    93   93   94 1   
    94   93  100 1   
    95   94   95 1   
    96   94   97 1   
    97   94  101 1   
    98   95   96 2   
    99   95  109 1   
   100   97   98 1   
   101   97   99 1   
   102   97  102 1   
   103   98  103 1   
   104   98  104 1   
   105   98  105 1   
   106   99  106 1   
   107   99  107 1   
   108   99  108 1   
   109  109  110 1   
   110  109  117 1   
   111  110  111 1   
   112  110  113 1   
   113  110  118 1   
   114  111  112 2   
   115  111  123 1   
   116  113  114 1   
   117  113  119 1   
   118  113  120 1   
   119  114  115 1   
   120  114  116 2   
   121  115  121 1   
   122  115  122 1   
   123  123  124 1   
   124  123  135 1   
   125  124  125 1   
   126  124  127 1   
   127  124  136 1   
   128  125  126 2   
   129  125  144 1   
   130  127  128 1   
   131  127  137 1   
   132  127  138 1   
   133  128  129 ar  
   134  128  130 ar  
   135  129  131 ar  
   136  129  139 1   
   137  130  132 ar  
   138  130  140 1   
   139  131  133 ar  
   140  131  141 1   
   141  132  133 ar  
   142  132  142 1   
   143  133  134 1   
   144  134  143 1   
   145  144  145 1   
   146  144  153 1   
   147  145  146 1   
   148  145  148 1   
   149  145  154 1   
   150  146  147 2   
   151  146  159 1   
   152  148  149 1   
   153  148  155 1   
   154  148  156 1   
   155  149  150 1   
   156  149  157 1   
   157  149  158 1   
   158  150  151 1   
   159  150  152 1   
   160  159  160 1   
   161  159  168 1   
   162  160  161 1   
   163  160  163 1   
   164  160  169 1   
   165  161  162 2   
   166  161  174 1   
   167  163  164 1   
   168  163  170 1   
   169  163  171 1   
   170  164  165 1   
   171  164  172 1   
   172  164  173 1   
   173  165  166 1   
   174  165  167 1   
   175  174  175 1   
   176  174  179 1   
   177  175  176 1   
   178  175  177 1   
   179  175  178 1   
   180  181  182 1   
   181  181  183 1   
   182  184  185 1   
   183  184  186 1   
   184  187  188 1   
   185  187  189 1   
@<TRIPOS>SUBSTRUCTURE
     1 MOL         1 TEMP              0 ****  ****    0 ROOT
