@<TRIPOS>MOLECULE
MOL
  175   173     1     0     0
SMALL
resp


@<TRIPOS>ATOM
      1 C1         -0.0500    4.0340    5.6590 c3        1 MOL     -0.502460
      2 C2         -0.5830    3.9420    4.1930 c         1 MOL      0.696872
      3 O1          0.2220    4.2790    3.2980 o         1 MOL     -0.532304
      4 H1          0.7730    3.3320    5.7900 hc        1 MOL      0.121080
      5 H2          0.3020    5.0470    5.8560 hc        1 MOL      0.121080
      6 H3         -0.8520    3.7860    6.3540 hc        1 MOL      0.121080
      7 N1         -1.8690    3.6100    4.0520 n         1 MOL     -0.574631
      8 C3         -2.3780    3.3640    2.6830 c3        1 MOL      0.208095
      9 C4         -2.3790    4.5910    1.7290 c         1 MOL      0.411212
     10 O2         -2.6140    5.7170    2.1820 o         1 MOL     -0.554939
     11 C5         -3.7830    2.7400    2.8050 c3        1 MOL     -0.140547
     12 C6         -4.4360    2.5470    1.4210 c         1 MOL      0.619498
     13 O3         -5.5020    3.1510    1.1600 o         1 MOL     -0.599432
     14 O4         -3.8600    1.7060    0.6730 o         1 MOL     -0.599432
     15 H4         -2.4550    3.4520    4.8600 hn        1 MOL      0.320118
     16 H5         -1.6870    2.6260    2.2630 h1        1 MOL     -0.055689
     17 H6         -4.5050    3.3240    3.3700 hc        1 MOL      0.011143
     18 H7         -3.7050    1.7790    3.3110 hc        1 MOL      0.011143
     19 N2         -2.1030    4.3950    0.4430 n         1 MOL     -0.109604
     20 C7         -2.3070    5.3490   -0.6330 c3        1 MOL      0.191765
     21 C8         -3.1900    4.9090   -1.8240 c         1 MOL      0.418149
     22 O5         -3.1730    5.5630   -2.9130 o         1 MOL     -0.559902
     23 C9         -0.9370    5.7980   -1.2340 c3        1 MOL     -0.225139
     24 H8         -1.5280    3.5950    0.2090 hn        1 MOL      0.114041
     25 H9         -2.8080    6.2400   -0.2600 h1        1 MOL      0.011300
     26 H10        -0.3140    6.0870   -0.3860 hc        1 MOL      0.053492
     27 H11        -0.4410    4.9430   -1.6740 hc        1 MOL      0.053492
     28 H12        -0.9620    6.5660   -2.0120 hc        1 MOL      0.053492
     29 N3         -3.9880    3.7990   -1.7970 n         1 MOL     -0.277826
     30 C10        -4.7460    3.3800   -2.9410 c3        1 MOL      0.204281
     31 C11        -6.0150    2.6900   -2.5510 c         1 MOL      0.286429
     32 O6         -6.9320    2.5880   -3.3690 o         1 MOL     -0.555687
     33 C12        -3.8830    2.4520   -3.8580 c3        1 MOL     -0.190831
     34 C13        -3.0940    1.3100   -3.1680 c         1 MOL      0.695805
     35 O7         -2.0480    0.8660   -3.7260 o         1 MOL     -0.681690
     36 O8         -3.6020    0.8630   -2.1660 o         1 MOL     -0.681690
     37 H13        -4.0370    3.2250   -0.9670 hn        1 MOL      0.102988
     38 H14        -5.0290    4.2950   -3.4700 h1        1 MOL      0.037276
     39 H15        -3.1990    3.1570   -4.3180 hc        1 MOL      0.035844
     40 H16        -4.5640    2.1000   -4.6260 hc        1 MOL      0.035844
     41 N4         -6.1200    2.2080   -1.2890 n         1 MOL      0.122945
     42 C14        -7.2200    1.4640   -0.7250 c3        1 MOL     -0.245848
     43 C15        -7.2410   -0.0210   -1.1550 c         1 MOL      0.465414
     44 O9         -8.3150   -0.6640   -1.1400 o         1 MOL     -0.592016
     45 H17        -5.3490    2.2600   -0.6470 hn        1 MOL     -0.125543
     46 H18        -8.1050    2.0410   -0.9990 h1        1 MOL      0.119252
     47 H19        -7.2110    1.5450    0.3680 h1        1 MOL      0.119252
     48 N5         -6.0980   -0.6440   -1.5340 n         1 MOL     -0.170688
     49 C16        -6.2350   -2.0600   -1.9670 c3        1 MOL     -0.062817
     50 C17        -6.3260   -3.1870   -0.9010 c         1 MOL      0.493806
     51 O10        -6.4940   -4.3280   -1.3220 o         1 MOL     -0.529043
     52 C18        -5.1330   -2.3330   -3.0150 c3        1 MOL      0.041134
     53 C19        -3.7560   -2.2060   -2.4680 c         1 MOL      0.588613
     54 N6         -2.7180   -2.4680   -3.3400 n         1 MOL     -0.666917
     55 O11        -3.5630   -2.0760   -1.2500 o         1 MOL     -0.646005
     56 H20        -5.2070   -0.1990   -1.7170 hn        1 MOL      0.199262
     57 H21        -7.1340   -2.1910   -2.5610 h1        1 MOL      0.092852
     58 H22        -5.2300   -1.6220   -3.8440 hc        1 MOL      0.011749
     59 H23        -5.3150   -3.3010   -3.4800 hc        1 MOL      0.011749
     60 H24        -2.8380   -2.7900   -4.2900 hn        1 MOL      0.350522
     61 H25        -1.8370   -2.1830   -2.9340 hn        1 MOL      0.350522
     62 N7         -6.2800   -2.8550    0.3760 n         1 MOL     -0.268160
     63 C20        -6.1900   -3.9000    1.4230 c3        1 MOL     -0.202131
     64 C21        -4.8220   -4.5650    1.5730 c         1 MOL      0.488285
     65 O12        -4.7590   -5.5980    2.1980 o         1 MOL     -0.564806
     66 H26        -6.2040   -1.8830    0.6300 hn        1 MOL      0.214167
     67 H27        -6.8180   -4.7460    1.1480 h1        1 MOL      0.114857
     68 H28        -6.5780   -3.5460    2.3760 h1        1 MOL      0.114857
     69 N8         -3.7590   -3.9790    1.0660 n         1 MOL     -0.120857
     70 C22        -2.3340   -4.5120    1.2400 c3        1 MOL     -0.344980
     71 C23        -1.3110   -3.4030    1.3570 c         1 MOL      0.658171
     72 O13        -1.3980   -2.4910    0.5830 o         1 MOL     -0.572056
     73 C24        -1.8880   -5.4020    0.0760 c3        1 MOL      0.676173
     74 C25        -2.4370   -6.8880    0.1810 c3        1 MOL     -0.544313
     75 O14        -2.2950   -4.8180   -1.1330 oh        1 MOL     -0.668061
     76 H29        -3.8140   -3.1230    0.5280 hn        1 MOL      0.141525
     77 H30        -2.2000   -5.0910    2.1480 h1        1 MOL      0.106451
     78 H31        -0.7920   -5.4680    0.1240 h1        1 MOL     -0.071597
     79 H32        -2.6010   -3.9250   -0.9590 ho        1 MOL      0.383055
     80 H33        -3.5100   -6.7510    0.0080 hc        1 MOL      0.131756
     81 H34        -2.0970   -7.4960   -0.6610 hc        1 MOL      0.131756
     82 H35        -2.2620   -7.3540    1.1490 hc        1 MOL      0.131756
     83 N9         -0.4040   -3.5530    2.2810 n         1 MOL     -0.525201
     84 C26         0.8230   -2.6570    2.2530 c3        1 MOL     -0.012808
     85 C27         1.6870   -3.0130    1.0100 c         1 MOL      0.634144
     86 O15         2.1450   -4.1430    0.8450 o         1 MOL     -0.608257
     87 C28         1.6570   -2.7790    3.5470 c3        1 MOL     -0.100147
     88 C29         0.7930   -2.1500    4.7110 c3        1 MOL      0.283622
     89 C30         2.9630   -2.0090    3.4800 c3        1 MOL     -0.074645
     90 C31         1.3580   -2.1270    6.1120 c3        1 MOL     -0.293465
     91 H36        -0.3520   -4.3440    2.9070 hn        1 MOL      0.313151
     92 H37         0.5400   -1.6140    2.0820 h1        1 MOL      0.062048
     93 H38         1.8100   -3.8550    3.6200 hc        1 MOL      0.047107
     94 H39        -0.1360   -2.7130    4.8420 hc        1 MOL     -0.052349
     95 H40         0.3050   -1.2210    4.4430 hc        1 MOL     -0.052349
     96 H41         3.4600   -2.1480    2.5220 hc        1 MOL      0.018513
     97 H42         2.7720   -0.9350    3.6020 hc        1 MOL      0.018513
     98 H43         3.5540   -2.2630    4.3640 hc        1 MOL      0.018513
     99 H44         0.5640   -1.7840    6.7680 hc        1 MOL      0.059469
    100 H45         1.7660   -3.0940    6.4080 hc        1 MOL      0.059469
    101 H46         2.1080   -1.3430    6.2340 hc        1 MOL      0.059469
    102 N10         1.8550   -2.0820    0.1050 n         1 MOL     -0.020497
    103 C32         2.6950   -2.1130   -1.1020 c3        1 MOL     -0.108282
    104 C33         4.1390   -1.7660   -0.6480 c         1 MOL      0.525404
    105 O16         4.4530   -1.4740    0.4680 o         1 MOL     -0.369661
    106 C34         2.1610   -1.1360   -2.0540 c3        1 MOL     -0.352970
    107 C35         0.6730   -1.2500   -2.3380 c         1 MOL      0.807103
    108 O17        -0.1310   -0.6010   -1.6540 o         1 MOL     -0.676504
    109 O18         0.2950   -1.9310   -3.3650 o         1 MOL     -0.676504
    110 H47         1.3630   -1.2170    0.3040 hn        1 MOL     -0.198055
    111 H48         2.7390   -3.0830   -1.5840 h1        1 MOL      0.119962
    112 H49         2.6450   -1.0000   -3.0260 hc        1 MOL      0.113429
    113 H50         2.3850   -0.1280   -1.6800 hc        1 MOL      0.113429
    114 N11         5.0610   -1.7750   -1.6660 n         1 MOL     -0.692764
    115 C36         6.4600   -1.6290   -1.4050 c3        1 MOL      0.418059
    116 C37         6.8080   -0.1890   -0.8850 c         1 MOL      0.423938
    117 O19         7.4910   -0.1390    0.1830 o         1 MOL     -0.482943
    118 C38         7.3370   -1.9890   -2.6310 c3        1 MOL     -0.163705
    119 C39         8.7390   -1.5800   -2.4890 ca        1 MOL      0.177402
    120 C40         9.5830   -1.9760   -1.4260 ca        1 MOL     -0.271268
    121 C41         9.2490   -0.6440   -3.4000 ca        1 MOL     -0.271268
    122 C42        10.8730   -1.4770   -1.2580 ca        1 MOL     -0.000999
    123 C43        10.6140   -0.2550   -3.3270 ca        1 MOL     -0.000999
    124 C44        11.4510   -0.7270   -2.3120 ca        1 MOL     -0.230074
    125 H51         4.7170   -1.8140   -2.6160 hn        1 MOL      0.348695
    126 H52         6.9000   -2.2510   -0.6250 h1        1 MOL      0.002766
    127 H53         6.9330   -1.5710   -3.5530 hc        1 MOL      0.041745
    128 H54         7.3190   -3.0750   -2.7290 hc        1 MOL      0.041745
    129 H55         9.2010   -2.6470   -0.6770 ha        1 MOL      0.138973
    130 H56         8.6290   -0.1740   -4.1520 ha        1 MOL      0.138973
    131 H57        11.4750   -1.7060   -0.3860 ha        1 MOL      0.089363
    132 H58        10.9140    0.4320   -4.1010 ha        1 MOL      0.089363
    133 H59        12.4870   -0.4110   -2.2430 ha        1 MOL      0.123458
    134 N12         6.4490    0.9030   -1.6490 n         1 MOL     -0.184709
    135 C45         6.7020    2.2060   -1.0350 c3        1 MOL     -0.062870
    136 C46         5.8570    2.4770    0.1960 c         1 MOL      0.430235
    137 O20         6.2810    3.2280    1.0130 o         1 MOL     -0.485966
    138 C47         6.3210    3.1740   -2.1840 c3        1 MOL     -0.045151
    139 C48         5.2840    2.4570   -2.9350 c3        1 MOL      0.015250
    140 C49         5.7920    1.0320   -2.9380 c3        1 MOL      0.032867
    141 H60         7.7280    2.2990   -0.6770 h1        1 MOL      0.090631
    142 H61         6.0390    4.1530   -1.8180 hc        1 MOL      0.034087
    143 H62         7.2080    3.3200   -2.8000 hc        1 MOL      0.034087
    144 H63         4.3410    2.5670   -2.3960 hc        1 MOL      0.030136
    145 H64         5.1730    2.8260   -3.9530 hc        1 MOL      0.030136
    146 H65         4.9020    0.4060   -3.0290 h1        1 MOL      0.010163
    147 H66         6.3920    0.7990   -3.8200 h1        1 MOL      0.010163
    148 N13         4.6790    1.8140    0.4280 n         1 MOL     -0.213143
    149 C50         3.9480    1.9940    1.7160 c3        1 MOL     -0.092042
    150 C51         4.7570    1.3460    2.8400 c         1 MOL      0.437540
    151 O21         4.9360    1.9660    3.8710 o         1 MOL     -0.558859
    152 C52         2.5190    1.4260    1.7260 c3        1 MOL      0.069529
    153 C53         1.6660    2.2220    0.6270 c3        1 MOL     -0.148665
    154 C54         0.2030    1.6940    0.5480 c         1 MOL      0.652945
    155 O22        -0.0560    0.6200    1.1200 o         1 MOL     -0.626622
    156 O23        -0.6430    2.1970   -0.2480 o         1 MOL     -0.626622
    157 H67         4.3750    1.0550   -0.1610 hn        1 MOL      0.154229
    158 H68         3.8600    3.0260    2.0740 h1        1 MOL      0.112349
    159 H69         2.0520    1.5600    2.7060 hc        1 MOL      0.033100
    160 H70         2.5090    0.3800    1.3980 hc        1 MOL      0.033100
    161 H71         2.1160    2.0880   -0.3580 hc        1 MOL      0.048761
    162 H72         1.6220    3.2810    0.8680 hc        1 MOL      0.048761
    163 N14         5.3860    0.2030    2.5650 n         1 MOL      0.000628
    164 C55         6.2770   -0.4560    3.5170 c3        1 MOL     -0.117674
    165 H73         5.9240   -1.4720    3.6990 h1        1 MOL      0.048083
    166 H74         7.2860   -0.4900    3.1070 h1        1 MOL      0.048083
    167 H75         6.2820    0.1000    4.4540 h1        1 MOL      0.048083
    168 H76         5.2770   -0.2590    1.6750 hn        1 MOL      0.028816
    169 Ca1        -2.1390   -0.0150   -0.2160 Ca        1 MOL      1.685623
    170 O24        -3.9750   -1.0970    1.3900 oh        1 MOL     -0.808561
    171 H77        -4.8830   -1.2910    1.6440 ho        1 MOL      0.400546
    172 H78        -3.5940   -0.6550    2.1500 ho        1 MOL      0.400546
    173 O25        -1.9220   -0.0970    2.8730 oh        1 MOL     -0.808561
    174 H79        -2.0040    0.1700    3.7910 ho        1 MOL      0.400546
    175 H80        -1.0410    0.1940    2.6180 ho        1 MOL      0.400546
@<TRIPOS>BOND
     1    1    2 1   
     2    1    4 1   
     3    1    5 1   
     4    1    6 1   
     5    2    3 2   
     6    2    7 1   
     7    7    8 1   
     8    7   15 1   
     9    8    9 1   
    10    8   11 1   
    11    8   16 1   
    12    9   10 2   
    13    9   19 1   
    14   11   12 1   
    15   11   17 1   
    16   11   18 1   
    17   12   13 1   
    18   12   14 1   
    19   19   20 1   
    20   19   24 1   
    21   20   21 1   
    22   20   23 1   
    23   20   25 1   
    24   21   22 2   
    25   21   29 1   
    26   23   26 1   
    27   23   27 1   
    28   23   28 1   
    29   29   30 1   
    30   29   37 1   
    31   30   31 1   
    32   30   33 1   
    33   30   38 1   
    34   31   32 2   
    35   31   41 1   
    36   33   34 1   
    37   33   39 1   
    38   33   40 1   
    39   34   35 1   
    40   34   36 1   
    41   41   42 1   
    42   41   45 1   
    43   42   43 1   
    44   42   46 1   
    45   42   47 1   
    46   43   44 2   
    47   43   48 1   
    48   48   49 1   
    49   48   56 1   
    50   49   50 1   
    51   49   52 1   
    52   49   57 1   
    53   50   51 2   
    54   50   62 1   
    55   52   53 1   
    56   52   58 1   
    57   52   59 1   
    58   53   54 1   
    59   53   55 2   
    60   54   60 1   
    61   54   61 1   
    62   62   63 1   
    63   62   66 1   
    64   63   64 1   
    65   63   67 1   
    66   63   68 1   
    67   64   65 2   
    68   64   69 1   
    69   69   70 1   
    70   69   76 1   
    71   70   71 1   
    72   70   73 1   
    73   70   77 1   
    74   71   72 2   
    75   71   83 1   
    76   73   74 1   
    77   73   75 1   
    78   73   78 1   
    79   74   80 1   
    80   74   81 1   
    81   74   82 1   
    82   75   79 1   
    83   83   84 1   
    84   83   91 1   
    85   84   85 1   
    86   84   87 1   
    87   84   92 1   
    88   85   86 2   
    89   85  102 1   
    90   87   88 1   
    91   87   89 1   
    92   87   93 1   
    93   88   90 1   
    94   88   94 1   
    95   88   95 1   
    96   89   96 1   
    97   89   97 1   
    98   89   98 1   
    99   90   99 1   
   100   90  100 1   
   101   90  101 1   
   102  102  103 1   
   103  102  110 1   
   104  103  104 1   
   105  103  106 1   
   106  103  111 1   
   107  104  105 2   
   108  104  114 1   
   109  106  107 1   
   110  106  112 1   
   111  106  113 1   
   112  107  108 1   
   113  107  109 1   
   114  114  115 1   
   115  114  125 1   
   116  115  116 1   
   117  115  118 1   
   118  115  126 1   
   119  116  117 2   
   120  116  134 1   
   121  118  119 1   
   122  118  127 1   
   123  118  128 1   
   124  119  120 ar  
   125  119  121 ar  
   126  120  122 ar  
   127  120  129 1   
   128  121  123 ar  
   129  121  130 1   
   130  122  124 ar  
   131  122  131 1   
   132  123  124 ar  
   133  123  132 1   
   134  124  133 1   
   135  134  135 1   
   136  134  140 1   
   137  135  136 1   
   138  135  138 1   
   139  135  141 1   
   140  136  137 2   
   141  136  148 1   
   142  138  139 1   
   143  138  142 1   
   144  138  143 1   
   145  139  140 1   
   146  139  144 1   
   147  139  145 1   
   148  140  146 1   
   149  140  147 1   
   150  148  149 1   
   151  148  157 1   
   152  149  150 1   
   153  149  152 1   
   154  149  158 1   
   155  150  151 2   
   156  150  163 1   
   157  152  153 1   
   158  152  159 1   
   159  152  160 1   
   160  153  154 1   
   161  153  161 1   
   162  153  162 1   
   163  154  155 1   
   164  154  156 1   
   165  163  164 1   
   166  163  168 1   
   167  164  165 1   
   168  164  166 1   
   169  164  167 1   
   170  170  171 1   
   171  170  172 1   
   172  173  174 1   
   173  173  175 1   
@<TRIPOS>SUBSTRUCTURE
     1 MOL         1 TEMP              0 ****  ****    0 ROOT
