@<TRIPOS>MOLECULE
MOL
  175   173     1     0     0
SMALL
resp


@<TRIPOS>ATOM
      1 C1          0.3820    4.3640    5.5820 c3        1 MOL     -0.365192
      2 C2         -0.0780    4.3220    4.1350 c         1 MOL      0.696253
      3 O1          0.6810    4.6370    3.2330 o         1 MOL     -0.545592
      4 H1          1.3180    3.8140    5.6810 hc        1 MOL      0.088072
      5 H2          0.5360    5.3990    5.8850 hc        1 MOL      0.088072
      6 H3         -0.3770    3.9070    6.2180 hc        1 MOL      0.088072
      7 N1         -1.3360    3.9200    3.8660 n         1 MOL     -0.581194
      8 C3         -1.8890    3.5200    2.5390 c3        1 MOL      0.038209
      9 C4         -1.8440    4.6810    1.5720 c         1 MOL      0.595203
     10 O2         -2.1290    5.8330    1.9520 o         1 MOL     -0.574792
     11 C5         -3.3610    3.0770    2.6970 c3        1 MOL     -0.274088
     12 C6         -3.9910    2.3430    1.5630 c         1 MOL      0.829156
     13 O3         -5.1900    2.0170    1.7150 o         1 MOL     -0.706831
     14 O4         -3.3300    2.0610    0.5530 o         1 MOL     -0.706831
     15 H4         -1.8480    3.6450    4.6860 hn        1 MOL      0.314642
     16 H5         -1.3200    2.7100    2.0740 h1        1 MOL      0.109773
     17 H6         -3.9860    3.9330    2.9660 hc        1 MOL      0.059029
     18 H7         -3.5120    2.3750    3.5210 hc        1 MOL      0.059029
     19 N2         -1.5660    4.3800    0.2890 n         1 MOL     -0.455063
     20 C7         -1.5570    5.3890   -0.7950 c3        1 MOL      0.228282
     21 C8         -2.3650    4.8730   -2.0350 c         1 MOL      0.589319
     22 O5         -2.1880    5.4940   -3.0800 o         1 MOL     -0.564763
     23 C9         -0.1100    5.8400   -1.0080 c3        1 MOL     -0.238272
     24 H8         -1.1760    3.4710    0.0640 hn        1 MOL      0.311385
     25 H9         -2.1450    6.2450   -0.4550 h1        1 MOL      0.007978
     26 H10         0.2940    6.1580   -0.0470 hc        1 MOL      0.053496
     27 H11         0.4390    4.9990   -1.4160 hc        1 MOL      0.053496
     28 H12        -0.1260    6.6150   -1.7700 hc        1 MOL      0.053496
     29 N3         -3.3280    3.9190   -1.8680 n         1 MOL     -0.579045
     30 C10        -4.2920    3.5240   -2.9210 c3        1 MOL      0.229929
     31 C11        -5.6160    3.0040   -2.4780 c         1 MOL      0.382811
     32 O6         -6.4720    3.2470   -3.2560 o         1 MOL     -0.571093
     33 C12        -3.6800    2.4900   -3.9550 c3        1 MOL     -0.213687
     34 C13        -2.9460    1.3530   -3.1880 c         1 MOL      0.689641
     35 O7         -3.6100    0.7870   -2.2700 o         1 MOL     -0.690193
     36 O8         -1.7390    1.0350   -3.4130 o         1 MOL     -0.690193
     37 H13        -3.4060    3.5520   -0.9340 hn        1 MOL      0.242712
     38 H14        -4.4850    4.3710   -3.5840 h1        1 MOL      0.031038
     39 H15        -2.9540    3.0020   -4.5970 hc        1 MOL      0.056953
     40 H16        -4.4780    2.0480   -4.5370 hc        1 MOL      0.056953
     41 N4         -5.7430    2.3780   -1.3650 n         1 MOL     -0.062193
     42 C14        -7.0230    1.7200   -0.9300 c3        1 MOL     -0.287439
     43 C15        -7.1200    0.2320   -1.3750 c         1 MOL      0.567448
     44 O9         -8.2200   -0.3450   -1.4030 o         1 MOL     -0.644584
     45 H17        -4.9600    2.3500   -0.7320 hn        1 MOL      0.096551
     46 H18        -7.9170    2.2480   -1.2470 h1        1 MOL      0.133141
     47 H19        -6.8990    1.7340    0.1520 h1        1 MOL      0.133141
     48 N5         -6.0800   -0.4510   -1.8560 n         1 MOL     -0.124032
     49 C16        -6.0920   -1.8530   -2.3570 c3        1 MOL     -0.018984
     50 C17        -6.2360   -2.9330   -1.2660 c         1 MOL      0.429174
     51 O10        -6.3010   -4.0590   -1.7260 o         1 MOL     -0.536871
     52 C18        -4.9640   -2.0480   -3.3720 c3        1 MOL     -0.152895
     53 C19        -3.5630   -2.2670   -2.7880 c         1 MOL      0.676840
     54 N6         -2.5830   -2.6940   -3.5990 n         1 MOL     -0.646463
     55 O11        -3.4220   -2.2010   -1.5570 o         1 MOL     -0.719707
     56 H20        -5.2420    0.1060   -1.9240 hn        1 MOL      0.082001
     57 H21        -6.9690   -1.9230   -2.9940 h1        1 MOL      0.085554
     58 H22        -4.8450   -1.1820   -4.0240 hc        1 MOL      0.048110
     59 H23        -5.1820   -2.9190   -3.9880 hc        1 MOL      0.048110
     60 H24        -2.7260   -3.0100   -4.5500 hn        1 MOL      0.321141
     61 H25        -1.6580   -2.7400   -3.2040 hn        1 MOL      0.321141
     62 N7         -6.1430   -2.6180    0.0300 n         1 MOL     -0.103704
     63 C20        -6.4040   -3.4140    1.2030 c3        1 MOL     -0.375073
     64 C21        -5.2640   -3.9830    1.8970 c         1 MOL      0.649537
     65 O12        -5.4330   -4.6450    2.9320 o         1 MOL     -0.608189
     66 H26        -5.8210   -1.6770    0.2340 hn        1 MOL      0.151872
     67 H27        -7.0360   -4.2460    0.8750 h1        1 MOL      0.139044
     68 H28        -6.8980   -2.7050    1.8640 h1        1 MOL      0.139044
     69 N8         -4.0590   -3.7230    1.4000 n         1 MOL     -0.421471
     70 C22        -2.8460   -4.4170    1.8760 c3        1 MOL     -0.043371
     71 C23        -1.7440   -3.3550    1.8740 c         1 MOL      0.550242
     72 O13        -1.8310   -2.3280    1.2170 o         1 MOL     -0.560851
     73 C24        -2.4050   -5.6880    1.0480 c3        1 MOL      0.425732
     74 C25        -3.2950   -6.9380    1.0480 c3        1 MOL     -0.422731
     75 O14        -2.3420   -5.2430   -0.3030 oh        1 MOL     -0.583711
     76 H29        -4.0360   -3.2510    0.5110 hn        1 MOL      0.429952
     77 H30        -2.9790   -4.7540    2.9010 h1        1 MOL      0.065567
     78 H31        -1.4410   -6.0800    1.3430 h1        1 MOL     -0.020032
     79 H32        -1.4660   -4.8700   -0.4050 ho        1 MOL      0.369309
     80 H33        -2.8180   -7.5840    0.3190 hc        1 MOL      0.109615
     81 H34        -3.2090   -7.4090    2.0280 hc        1 MOL      0.109615
     82 H35        -4.2990   -6.7040    0.7060 hc        1 MOL      0.109615
     83 N9         -0.5640   -3.5720    2.6040 n         1 MOL     -0.587712
     84 C26         0.5630   -2.6670    2.4270 c3        1 MOL      0.098565
     85 C27         1.3220   -3.0150    1.1890 c         1 MOL      0.451112
     86 O15         1.5990   -4.1910    0.8830 o         1 MOL     -0.593148
     87 C28         1.4070   -2.6440    3.6720 c3        1 MOL     -0.022779
     88 C29         0.7910   -1.5920    4.5860 c3        1 MOL      0.038944
     89 C30         2.9370   -2.3410    3.3960 c3        1 MOL     -0.107046
     90 C31         1.3670   -1.3400    5.9720 c3        1 MOL     -0.059661
     91 H36        -0.4990   -4.2410    3.3540 hn        1 MOL      0.296320
     92 H37         0.1630   -1.7250    2.0380 h1        1 MOL      0.037836
     93 H38         1.3970   -3.6320    4.1310 hc        1 MOL      0.040635
     94 H39        -0.2760   -1.7570    4.7180 hc        1 MOL      0.001605
     95 H40         0.8600   -0.6300    4.0890 hc        1 MOL      0.001605
     96 H41         3.4480   -3.2600    3.1150 hc        1 MOL      0.020899
     97 H42         3.0630   -1.5900    2.6260 hc        1 MOL      0.020899
     98 H43         3.4380   -2.0810    4.3310 hc        1 MOL      0.020899
     99 H44         1.2980   -2.2390    6.5870 hc        1 MOL      0.005744
    100 H45         2.3530   -0.8890    5.9460 hc        1 MOL      0.005744
    101 H46         0.7600   -0.6600    6.5720 hc        1 MOL      0.005744
    102 N10         1.6600   -2.1170    0.2970 n         1 MOL     -0.034387
    103 C32         2.5000   -2.3550   -0.8670 c3        1 MOL     -0.056760
    104 C33         3.9770   -1.9900   -0.5130 c         1 MOL      0.490945
    105 O16         4.3320   -1.3690    0.5340 o         1 MOL     -0.406595
    106 C34         2.0270   -1.6070   -2.1720 c3        1 MOL     -0.330150
    107 C35         0.5790   -1.9500   -2.5330 c         1 MOL      0.739046
    108 O17        -0.3220   -1.4310   -1.8120 o         1 MOL     -0.664888
    109 O18         0.3040   -2.5450   -3.6050 o         1 MOL     -0.664888
    110 H47         1.2190   -1.2120    0.3570 hn        1 MOL      0.070046
    111 H48         2.6050   -3.3990   -1.1530 h1        1 MOL      0.089874
    112 H49         2.6380   -1.7690   -3.0630 hc        1 MOL      0.110331
    113 H50         2.0250   -0.5390   -1.9800 hc        1 MOL      0.110331
    114 N11         4.8360   -2.1120   -1.5160 n         1 MOL     -0.533857
    115 C36         6.2950   -1.7780   -1.3790 c3        1 MOL      0.095166
    116 C37         6.5200   -0.3180   -0.8990 c         1 MOL      0.516878
    117 O19         7.0540   -0.1300    0.1670 o         1 MOL     -0.569006
    118 C38         7.0120   -2.0440   -2.6910 c3        1 MOL     -0.030443
    119 C39         8.4350   -1.7840   -2.6860 ca        1 MOL      0.006352
    120 C40         9.2960   -2.5720   -1.8960 ca        1 MOL     -0.117072
    121 C41         8.9440   -0.6250   -3.3120 ca        1 MOL     -0.117072
    122 C42        10.6780   -2.3190   -1.8930 ca        1 MOL     -0.165221
    123 C43        10.3410   -0.3350   -3.2620 ca        1 MOL     -0.165221
    124 C44        11.1800   -1.1840   -2.5520 ca        1 MOL     -0.043712
    125 H51         4.5370   -2.3900   -2.4380 hn        1 MOL      0.314185
    126 H52         6.7960   -2.3870   -0.6340 h1        1 MOL      0.082786
    127 H53         6.4920   -1.5080   -3.4880 hc        1 MOL      0.030897
    128 H54         6.8760   -3.0690   -3.0320 hc        1 MOL      0.030897
    129 H55         8.8130   -3.3940   -1.3780 ha        1 MOL      0.104260
    130 H56         8.2360    0.0570   -3.7460 ha        1 MOL      0.104260
    131 H57        11.3380   -2.9160   -1.2760 ha        1 MOL      0.124323
    132 H58        10.7220    0.5700   -3.7030 ha        1 MOL      0.124323
    133 H59        12.2430   -1.0380   -2.5270 ha        1 MOL      0.084896
    134 N12         6.0070    0.7350   -1.5660 n         1 MOL     -0.037350
    135 C45         6.2970    2.1210   -1.1680 c3        1 MOL     -0.193740
    136 C46         5.6210    2.5880    0.1330 c         1 MOL      0.470837
    137 O20         5.9710    3.6320    0.6720 o         1 MOL     -0.541851
    138 C47         5.7700    2.8980   -2.4120 c3        1 MOL     -0.094451
    139 C48         4.5660    2.0580   -2.8170 c3        1 MOL     -0.001377
    140 C49         5.1010    0.6980   -2.7620 c3        1 MOL      0.037594
    141 H60         7.3810    2.1660   -1.1000 h1        1 MOL      0.119313
    142 H61         5.4690    3.9330   -2.2530 hc        1 MOL      0.057349
    143 H62         6.5340    2.9690   -3.1940 hc        1 MOL      0.057349
    144 H63         3.7490    2.0930   -2.0970 hc        1 MOL      0.039771
    145 H64         4.2040    2.3610   -3.7990 hc        1 MOL      0.039771
    146 H65         4.2930   -0.0340   -2.7490 h1        1 MOL     -0.008095
    147 H66         5.7060    0.4660   -3.6420 h1        1 MOL     -0.008095
    148 N13         4.7310    1.7710    0.6530 n         1 MOL     -0.182773
    149 C50         4.0090    1.9360    1.9170 c3        1 MOL     -0.045194
    150 C51         4.7030    1.1310    3.0250 c         1 MOL      0.423895
    151 O21         4.6450    1.5140    4.1840 o         1 MOL     -0.549117
    152 C52         2.5380    1.3900    1.6950 c3        1 MOL      0.091858
    153 C53         1.7520    2.1280    0.6890 c3        1 MOL      0.039509
    154 C54         0.3380    1.5480    0.4990 c         1 MOL      0.460209
    155 O22        -0.0650    0.5880    1.2180 o         1 MOL     -0.653281
    156 O23        -0.4520    1.9110   -0.4030 o         1 MOL     -0.653281
    157 H67         4.6090    0.9280    0.1240 hn        1 MOL      0.118765
    158 H68         3.9630    2.9320    2.3400 h1        1 MOL      0.099519
    159 H69         1.9840    1.5180    2.6190 hc        1 MOL      0.008064
    160 H70         2.5980    0.3210    1.4880 hc        1 MOL      0.008064
    161 H71         2.1940    2.1630   -0.3070 hc        1 MOL      0.013685
    162 H72         1.6860    3.1700    1.0160 hc        1 MOL      0.013685
    163 N14         5.3460   -0.0470    2.7650 n         1 MOL     -0.003311
    164 C55         6.3440   -0.6060    3.6300 c3        1 MOL     -0.257255
    165 H73         6.7850   -1.4830    3.1570 h1        1 MOL      0.083742
    166 H74         7.1220    0.1360    3.8160 h1        1 MOL      0.083742
    167 H75         5.8850   -0.8960    4.5760 h1        1 MOL      0.083742
    168 H76         5.1630   -0.4700    1.8660 hn        1 MOL      0.103422
    169 Ca1        -2.0730   -0.0390   -0.5070 Ca        1 MOL      1.720154
    170 O24        -4.4480   -0.5450    1.2080 oh        1 MOL     -0.694639
    171 H77        -3.7830   -0.5550    1.9040 ho        1 MOL      0.345578
    172 H78        -4.9490    0.2570    1.3590 ho        1 MOL      0.345578
    173 O25        -2.1390    0.0840    2.7710 oh        1 MOL     -0.694639
    174 H79        -2.1320    0.2230    3.7150 ho        1 MOL      0.345578
    175 H80        -1.2310    0.2500    2.4950 ho        1 MOL      0.345578
@<TRIPOS>BOND
     1    1    2 1   
     2    1    4 1   
     3    1    5 1   
     4    1    6 1   
     5    2    3 2   
     6    2    7 1   
     7    7    8 1   
     8    7   15 1   
     9    8    9 1   
    10    8   11 1   
    11    8   16 1   
    12    9   10 2   
    13    9   19 1   
    14   11   12 1   
    15   11   17 1   
    16   11   18 1   
    17   12   13 1   
    18   12   14 1   
    19   19   20 1   
    20   19   24 1   
    21   20   21 1   
    22   20   23 1   
    23   20   25 1   
    24   21   22 2   
    25   21   29 1   
    26   23   26 1   
    27   23   27 1   
    28   23   28 1   
    29   29   30 1   
    30   29   37 1   
    31   30   31 1   
    32   30   33 1   
    33   30   38 1   
    34   31   32 2   
    35   31   41 1   
    36   33   34 1   
    37   33   39 1   
    38   33   40 1   
    39   34   35 1   
    40   34   36 1   
    41   41   42 1   
    42   41   45 1   
    43   42   43 1   
    44   42   46 1   
    45   42   47 1   
    46   43   44 2   
    47   43   48 1   
    48   48   49 1   
    49   48   56 1   
    50   49   50 1   
    51   49   52 1   
    52   49   57 1   
    53   50   51 2   
    54   50   62 1   
    55   52   53 1   
    56   52   58 1   
    57   52   59 1   
    58   53   54 1   
    59   53   55 2   
    60   54   60 1   
    61   54   61 1   
    62   62   63 1   
    63   62   66 1   
    64   63   64 1   
    65   63   67 1   
    66   63   68 1   
    67   64   65 2   
    68   64   69 1   
    69   69   70 1   
    70   69   76 1   
    71   70   71 1   
    72   70   73 1   
    73   70   77 1   
    74   71   72 2   
    75   71   83 1   
    76   73   74 1   
    77   73   75 1   
    78   73   78 1   
    79   74   80 1   
    80   74   81 1   
    81   74   82 1   
    82   75   79 1   
    83   83   84 1   
    84   83   91 1   
    85   84   85 1   
    86   84   87 1   
    87   84   92 1   
    88   85   86 2   
    89   85  102 1   
    90   87   88 1   
    91   87   89 1   
    92   87   93 1   
    93   88   90 1   
    94   88   94 1   
    95   88   95 1   
    96   89   96 1   
    97   89   97 1   
    98   89   98 1   
    99   90   99 1   
   100   90  100 1   
   101   90  101 1   
   102  102  103 1   
   103  102  110 1   
   104  103  104 1   
   105  103  106 1   
   106  103  111 1   
   107  104  105 2   
   108  104  114 1   
   109  106  107 1   
   110  106  112 1   
   111  106  113 1   
   112  107  108 1   
   113  107  109 1   
   114  114  115 1   
   115  114  125 1   
   116  115  116 1   
   117  115  118 1   
   118  115  126 1   
   119  116  117 2   
   120  116  134 1   
   121  118  119 1   
   122  118  127 1   
   123  118  128 1   
   124  119  120 ar  
   125  119  121 ar  
   126  120  122 ar  
   127  120  129 1   
   128  121  123 ar  
   129  121  130 1   
   130  122  124 ar  
   131  122  131 1   
   132  123  124 ar  
   133  123  132 1   
   134  124  133 1   
   135  134  135 1   
   136  134  140 1   
   137  135  136 1   
   138  135  138 1   
   139  135  141 1   
   140  136  137 2   
   141  136  148 1   
   142  138  139 1   
   143  138  142 1   
   144  138  143 1   
   145  139  140 1   
   146  139  144 1   
   147  139  145 1   
   148  140  146 1   
   149  140  147 1   
   150  148  149 1   
   151  148  157 1   
   152  149  150 1   
   153  149  152 1   
   154  149  158 1   
   155  150  151 2   
   156  150  163 1   
   157  152  153 1   
   158  152  159 1   
   159  152  160 1   
   160  153  154 1   
   161  153  161 1   
   162  153  162 1   
   163  154  155 1   
   164  154  156 1   
   165  163  164 1   
   166  163  168 1   
   167  164  165 1   
   168  164  166 1   
   169  164  167 1   
   170  170  171 1   
   171  170  172 1   
   172  173  174 1   
   173  173  175 1   
@<TRIPOS>SUBSTRUCTURE
     1 MOL         1 TEMP              0 ****  ****    0 ROOT
