@<TRIPOS>MOLECULE
MOL
  172   171     1     0     0
SMALL
resp


@<TRIPOS>ATOM
      1 C1          0.0590   -3.6320    5.6200 c3        1 MOL     -0.339384
      2 C2          0.5530   -3.4870    4.1830 c         1 MOL      0.707206
      3 O1         -0.0530   -3.9820    3.1890 o         1 MOL     -0.592047
      4 H1         -1.0010   -3.8870    5.6160 hc        1 MOL      0.080348
      5 H2          0.6210   -4.4210    6.1200 hc        1 MOL      0.080348
      6 H3          0.2030   -2.6910    6.1500 hc        1 MOL      0.080348
      7 N1          1.6120   -2.6840    4.0630 n         1 MOL     -0.645315
      8 C3          2.1510   -2.3400    2.7670 c3        1 MOL      0.413863
      9 C4          2.6990   -3.6290    2.1680 c         1 MOL      0.334501
     10 O2          3.5140   -4.4170    2.6670 o         1 MOL     -0.597115
     11 C5          3.1360   -1.2220    3.1040 c3        1 MOL     -0.360651
     12 C6          3.8520   -0.7730    1.7930 c         1 MOL      0.904301
     13 O3          4.8550   -0.1330    1.8250 o         1 MOL     -0.724535
     14 O4          3.3290   -1.0660    0.7000 o         1 MOL     -0.724535
     15 H4          2.0460   -2.3270    4.9030 hn        1 MOL      0.324793
     16 H5          1.4500   -1.8850    2.0670 h1        1 MOL     -0.023619
     17 H6          3.8340   -1.6780    3.8130 hc        1 MOL      0.054122
     18 H7          2.6170   -0.3000    3.3820 hc        1 MOL      0.054122
     19 N2          2.2330   -3.8990    0.9680 n         1 MOL     -0.083013
     20 C7          2.4910   -5.1760    0.2260 c3        1 MOL      0.051108
     21 C8          3.3660   -4.9740   -0.9730 c         1 MOL      0.487968
     22 O5          4.0600   -5.9300   -1.2530 o         1 MOL     -0.595388
     23 C9          1.0220   -5.6880   -0.1140 c3        1 MOL     -0.251964
     24 H8          1.6960   -3.1460    0.5660 hn        1 MOL      0.313132
     25 H9          3.0120   -5.9420    0.8090 h1        1 MOL      0.066628
     26 H10         0.8910   -6.7380   -0.3850 hc        1 MOL      0.060841
     27 H11         0.3940   -5.3990    0.7310 hc        1 MOL      0.060841
     28 H12         0.6870   -5.0500   -0.9270 hc        1 MOL      0.060841
     29 N3          3.4320   -3.8550   -1.6450 n         1 MOL     -0.228165
     30 C10         4.3820   -3.6230   -2.6860 c3        1 MOL     -0.102334
     31 C11         5.6870   -2.9720   -2.2030 c         1 MOL      0.515483
     32 O6          6.6870   -2.9050   -2.9310 o         1 MOL     -0.568455
     33 C12         3.8670   -2.8900   -3.9580 c3        1 MOL      0.134886
     34 C13         3.4350   -1.4470   -3.8200 c         1 MOL      0.558253
     35 O7          3.0930   -1.0090   -2.6650 o         1 MOL     -0.668200
     36 O8          3.3700   -0.7780   -4.9140 o         1 MOL     -0.668200
     37 H13         2.9430   -3.0990   -1.2040 hn        1 MOL      0.120474
     38 H14         4.7190   -4.5930   -3.0370 h1        1 MOL      0.096841
     39 H15         3.0110   -3.4430   -4.3680 hc        1 MOL     -0.031076
     40 H16         4.6190   -3.0550   -4.7360 hc        1 MOL     -0.031076
     41 N4          5.7120   -2.5290   -0.9250 n         1 MOL     -0.147972
     42 C14         6.9710   -2.3300   -0.1480 c3        1 MOL     -0.162674
     43 C15         7.7230   -1.0370   -0.3340 c         1 MOL      0.553767
     44 O9          8.8880   -1.0000    0.0140 o         1 MOL     -0.561938
     45 H17         4.7880   -2.4200   -0.5090 hn        1 MOL      0.065092
     46 H18         7.6430   -3.1580   -0.3860 h1        1 MOL      0.094698
     47 H19         6.8160   -2.4810    0.9270 h1        1 MOL      0.094698
     48 N5          6.9350   -0.0880   -0.9200 n         1 MOL     -0.301914
     49 C16         7.1650    1.3090   -1.3080 c3        1 MOL     -0.016046
     50 C17         7.0270    2.3820   -0.2600 c         1 MOL      0.459494
     51 O10         7.5470    3.4650   -0.3860 o         1 MOL     -0.559217
     52 C18         6.3360    1.5630   -2.5740 c3        1 MOL     -0.300428
     53 C19         4.9210    2.0690   -2.2720 c         1 MOL      0.805808
     54 N6          4.5650    2.9970   -3.1160 n         1 MOL     -0.815619
     55 O11         4.2020    1.6900   -1.3680 o         1 MOL     -0.671262
     56 H20         5.9590   -0.3450   -1.0310 hn        1 MOL      0.191150
     57 H21         8.2270    1.4190   -1.5470 h1        1 MOL      0.095955
     58 H22         6.2550    0.6600   -3.1770 hc        1 MOL      0.102938
     59 H23         6.7800    2.4340   -3.0580 hc        1 MOL      0.102938
     60 H24         5.0660    3.3510   -3.9210 hn        1 MOL      0.376618
     61 H25         3.6630    3.3990   -2.9170 hn        1 MOL      0.376618
     62 N7          6.2770    2.1010    0.8250 n         1 MOL     -0.132873
     63 C20         6.2010    3.0340    1.9320 c3        1 MOL     -0.317077
     64 C21         4.9920    3.9600    1.9860 c         1 MOL      0.619086
     65 O12         4.9680    4.7490    2.9330 o         1 MOL     -0.597418
     66 H26         5.7630    1.2420    0.9400 hn        1 MOL      0.203546
     67 H27         7.0900    3.6500    1.8600 h1        1 MOL      0.134213
     68 H28         6.1780    2.4590    2.8510 h1        1 MOL      0.134213
     69 N8          3.9910    3.7790    1.1300 n         1 MOL     -0.231775
     70 C22         2.6270    4.3710    1.3110 c3        1 MOL     -0.024441
     71 C23         1.5160    3.3010    1.3110 c         1 MOL      0.568129
     72 O13         1.8170    2.1150    1.0280 o         1 MOL     -0.573754
     73 C24         2.3900    5.5480    0.3000 c3        1 MOL      0.200064
     74 C25         3.4820    6.5970    0.3860 c3        1 MOL     -0.290189
     75 O14         2.3640    5.0780   -1.0960 oh        1 MOL     -0.608981
     76 H29         4.0420    3.0740    0.4090 hn        1 MOL      0.182950
     77 H30         2.6350    4.8190    2.3050 h1        1 MOL      0.064403
     78 H31         1.4520    6.0520    0.5450 h1        1 MOL      0.045684
     79 H32         2.6110    5.8310   -1.6340 ho        1 MOL      0.395640
     80 H33         3.1310    7.5990    0.1140 hc        1 MOL      0.081735
     81 H34         3.7840    6.7850    1.4200 hc        1 MOL      0.081735
     82 H35         4.4070    6.3650   -0.1180 hc        1 MOL      0.081735
     83 N9          0.2470    3.6440    1.6700 n         1 MOL     -0.426572
     84 C26        -0.9040    2.7630    1.6330 c3        1 MOL     -0.050415
     85 C27        -1.7540    3.0620    0.3880 c         1 MOL      0.501927
     86 O15        -2.3940    4.0690    0.1270 o         1 MOL     -0.610815
     87 C28        -1.7080    2.7580    3.0000 c3        1 MOL      0.060231
     88 C29        -0.9710    2.2520    4.2310 c3        1 MOL      0.157906
     89 C30        -2.9740    1.9240    2.9290 c3        1 MOL     -0.029540
     90 C31        -1.5150    2.3560    5.6350 c3        1 MOL     -0.211177
     91 H36         0.2510    4.5470    2.1290 hn        1 MOL      0.260294
     92 H37        -0.5270    1.7410    1.5770 h1        1 MOL      0.127904
     93 H38        -2.0230    3.7600    3.2770 hc        1 MOL     -0.010054
     94 H39        -0.0750    2.8640    4.2850 hc        1 MOL     -0.029934
     95 H40        -0.6270    1.2360    4.0220 hc        1 MOL     -0.029934
     96 H41        -3.5440    2.0830    2.0060 hc        1 MOL     -0.008348
     97 H42        -2.8090    0.8440    3.0300 hc        1 MOL     -0.008348
     98 H43        -3.6820    2.3390    3.6460 hc        1 MOL     -0.008348
     99 H44        -2.3670    1.6860    5.7930 hc        1 MOL      0.043217
    100 H45        -0.7320    2.0980    6.3490 hc        1 MOL      0.043217
    101 H46        -1.7010    3.4040    5.8670 hc        1 MOL      0.043217
    102 N10        -1.8550    2.0560   -0.4410 n         1 MOL     -0.183496
    103 C32        -2.8610    1.9670   -1.5350 c3        1 MOL     -0.011457
    104 C33        -4.2100    1.4860   -0.8650 c         1 MOL      0.370512
    105 O16        -4.2120    0.8810    0.2000 o         1 MOL     -0.229653
    106 C34        -2.4390    1.0700   -2.7070 c3        1 MOL     -0.296824
    107 C35        -0.9540    1.2380   -3.1130 c         1 MOL      0.751166
    108 O17        -0.5810    2.0890   -3.9710 o         1 MOL     -0.695986
    109 O18        -0.1130    0.4870   -2.5210 o         1 MOL     -0.695986
    110 H47        -1.3690    1.2060   -0.1680 hn        1 MOL      0.247031
    111 H48        -3.0270    2.9450   -2.0030 h1        1 MOL      0.091849
    112 H49        -3.0310    1.3270   -3.5920 hc        1 MOL      0.072340
    113 H50        -2.5700    0.0480   -2.3720 hc        1 MOL      0.072340
    114 N11        -5.3160    1.6630   -1.5460 n         1 MOL     -0.562221
    115 C36        -6.6490    1.4590   -1.0230 c3        1 MOL      0.350004
    116 C37        -6.8840   -0.0940   -0.7390 c         1 MOL      0.412296
    117 O19        -7.5030   -0.3790    0.2430 o         1 MOL     -0.508722
    118 C38        -7.6900    2.0200   -2.0220 c3        1 MOL     -0.261581
    119 C39        -9.0880    1.6250   -1.7690 ca        1 MOL      0.149362
    120 C40        -9.8440    2.4950   -0.9540 ca        1 MOL     -0.214842
    121 C41        -9.5640    0.3990   -2.1900 ca        1 MOL     -0.214842
    122 C42       -11.1820    2.1060   -0.6120 ca        1 MOL     -0.104013
    123 C43       -10.8940   -0.0320   -1.7890 ca        1 MOL     -0.104013
    124 C44       -11.6900    0.8600   -1.0540 ca        1 MOL     -0.103236
    125 H51        -5.2100    2.3340   -2.2960 hn        1 MOL      0.293708
    126 H52        -6.7260    1.9750   -0.0730 h1        1 MOL      0.041295
    127 H53        -7.4920    1.7510   -3.0670 hc        1 MOL      0.073329
    128 H54        -7.4380    3.0810   -2.0320 hc        1 MOL      0.073329
    129 H55        -9.4640    3.4010   -0.5150 ha        1 MOL      0.130984
    130 H56        -8.9330   -0.2480   -2.7890 ha        1 MOL      0.130984
    131 H57       -11.7540    2.6850    0.0870 ha        1 MOL      0.116939
    132 H58       -11.2880   -0.9920   -2.0830 ha        1 MOL      0.116939
    133 H59       -12.7260    0.5910   -0.8700 ha        1 MOL      0.091895
    134 N12        -6.4290   -1.0790   -1.5510 n         1 MOL     -0.005131
    135 C45        -6.4060   -2.5350   -1.2110 c3        1 MOL      0.045640
    136 C46        -5.6550   -2.9200    0.0190 c         1 MOL      0.326324
    137 O20        -6.0520   -3.8360    0.6960 o         1 MOL     -0.503420
    138 C47        -5.9910   -3.3000   -2.5450 c3        1 MOL     -0.054417
    139 C48        -5.9880   -2.1440   -3.6020 c3        1 MOL     -0.130433
    140 C49        -5.9180   -0.8180   -2.8440 c3        1 MOL      0.015292
    141 H60        -7.4690   -2.7170   -1.0340 h1        1 MOL      0.043773
    142 H61        -5.0150   -3.7440   -2.3880 hc        1 MOL      0.046905
    143 H62        -6.7550   -4.0280   -2.8080 hc        1 MOL      0.046905
    144 H63        -5.1420   -2.2170   -4.2820 hc        1 MOL      0.045622
    145 H64        -6.9580   -2.1400   -4.1040 hc        1 MOL      0.045622
    146 H65        -4.8720   -0.5150   -2.7610 h1        1 MOL      0.018019
    147 H66        -6.3520   -0.0930   -3.5250 h1        1 MOL      0.018019
    148 N13        -4.6560   -2.0970    0.4570 n         1 MOL     -0.177436
    149 C50        -3.9950   -2.2300    1.7490 c3        1 MOL     -0.038137
    150 C51        -4.7620   -1.5020    2.8330 c         1 MOL      0.447055
    151 O21        -4.5890   -1.7660    3.9960 o         1 MOL     -0.555047
    152 C52        -2.5660   -1.7440    1.6180 c3        1 MOL      0.154881
    153 C53        -1.6490   -2.3820    0.5930 c3        1 MOL     -0.276362
    154 C54        -0.4120   -1.5790    0.1640 c         1 MOL      0.753960
    155 O22        -0.3300   -0.3520    0.3620 o         1 MOL     -0.808029
    156 O23         0.6390   -2.1150   -0.3890 o         1 MOL     -0.808029
    157 H67        -4.4020   -1.3100   -0.1060 hn        1 MOL      0.186689
    158 H68        -3.9490   -3.2750    2.0630 h1        1 MOL      0.093938
    159 H69        -2.1790   -2.1060    2.5730 hc        1 MOL      0.000432
    160 H70        -2.5660   -0.6510    1.5400 hc        1 MOL      0.000432
    161 H71        -2.3270   -2.4210   -0.2570 hc        1 MOL      0.067912
    162 H72        -1.4330   -3.3900    0.9240 hc        1 MOL      0.067912
    163 N14        -5.5890   -0.5100    2.4410 n         1 MOL      0.032085
    164 C55        -6.4130    0.2130    3.4280 c3        1 MOL     -0.232639
    165 H73        -7.4000   -0.2470    3.4830 h1        1 MOL      0.083987
    166 H74        -5.9350    0.1660    4.4070 h1        1 MOL      0.083987
    167 H75        -6.5150    1.2540    3.1220 h1        1 MOL      0.083987
    168 H76        -5.5080   -0.2840    1.4620 hn        1 MOL     -0.106309
    169 Ca1         1.8390    0.2550   -0.8970 Ca        1 MOL      1.742453
    170 O24         1.5590    2.7500   -1.9060 oh        1 MOL     -0.998202
    171 H77         1.9890    3.5060   -1.5050 ho        1 MOL      0.451198
    172 H78         1.0780    3.1130   -2.6560 ho        1 MOL      0.451198
@<TRIPOS>BOND
     1    1    2 1   
     2    1    4 1   
     3    1    5 1   
     4    1    6 1   
     5    2    3 2   
     6    2    7 1   
     7    7    8 1   
     8    7   15 1   
     9    8    9 1   
    10    8   11 1   
    11    8   16 1   
    12    9   10 2   
    13    9   19 1   
    14   11   12 1   
    15   11   17 1   
    16   11   18 1   
    17   12   13 1   
    18   12   14 1   
    19   19   20 1   
    20   19   24 1   
    21   20   21 1   
    22   20   23 1   
    23   20   25 1   
    24   21   22 2   
    25   21   29 1   
    26   23   26 1   
    27   23   27 1   
    28   23   28 1   
    29   29   30 1   
    30   29   37 1   
    31   30   31 1   
    32   30   33 1   
    33   30   38 1   
    34   31   32 2   
    35   31   41 1   
    36   33   34 1   
    37   33   39 1   
    38   33   40 1   
    39   34   35 1   
    40   34   36 1   
    41   41   42 1   
    42   41   45 1   
    43   42   43 1   
    44   42   46 1   
    45   42   47 1   
    46   43   44 2   
    47   43   48 1   
    48   48   49 1   
    49   48   56 1   
    50   49   50 1   
    51   49   52 1   
    52   49   57 1   
    53   50   51 2   
    54   50   62 1   
    55   52   53 1   
    56   52   58 1   
    57   52   59 1   
    58   53   54 1   
    59   53   55 2   
    60   54   60 1   
    61   54   61 1   
    62   62   63 1   
    63   62   66 1   
    64   63   64 1   
    65   63   67 1   
    66   63   68 1   
    67   64   65 2   
    68   64   69 1   
    69   69   70 1   
    70   69   76 1   
    71   70   71 1   
    72   70   73 1   
    73   70   77 1   
    74   71   72 2   
    75   71   83 1   
    76   73   74 1   
    77   73   75 1   
    78   73   78 1   
    79   74   80 1   
    80   74   81 1   
    81   74   82 1   
    82   75   79 1   
    83   83   84 1   
    84   83   91 1   
    85   84   85 1   
    86   84   87 1   
    87   84   92 1   
    88   85   86 2   
    89   85  102 1   
    90   87   88 1   
    91   87   89 1   
    92   87   93 1   
    93   88   90 1   
    94   88   94 1   
    95   88   95 1   
    96   89   96 1   
    97   89   97 1   
    98   89   98 1   
    99   90   99 1   
   100   90  100 1   
   101   90  101 1   
   102  102  103 1   
   103  102  110 1   
   104  103  104 1   
   105  103  106 1   
   106  103  111 1   
   107  104  105 2   
   108  104  114 1   
   109  106  107 1   
   110  106  112 1   
   111  106  113 1   
   112  107  108 1   
   113  107  109 1   
   114  114  115 1   
   115  114  125 1   
   116  115  116 1   
   117  115  118 1   
   118  115  126 1   
   119  116  117 2   
   120  116  134 1   
   121  118  119 1   
   122  118  127 1   
   123  118  128 1   
   124  119  120 ar  
   125  119  121 ar  
   126  120  122 ar  
   127  120  129 1   
   128  121  123 ar  
   129  121  130 1   
   130  122  124 ar  
   131  122  131 1   
   132  123  124 ar  
   133  123  132 1   
   134  124  133 1   
   135  134  135 1   
   136  134  140 1   
   137  135  136 1   
   138  135  138 1   
   139  135  141 1   
   140  136  137 2   
   141  136  148 1   
   142  138  139 1   
   143  138  142 1   
   144  138  143 1   
   145  139  140 1   
   146  139  144 1   
   147  139  145 1   
   148  140  146 1   
   149  140  147 1   
   150  148  149 1   
   151  148  157 1   
   152  149  150 1   
   153  149  152 1   
   154  149  158 1   
   155  150  151 2   
   156  150  163 1   
   157  152  153 1   
   158  152  159 1   
   159  152  160 1   
   160  153  154 1   
   161  153  161 1   
   162  153  162 1   
   163  154  155 1   
   164  154  156 1   
   165  163  164 1   
   166  163  168 1   
   167  164  165 1   
   168  164  166 1   
   169  164  167 1   
   170  170  171 1   
   171  170  172 1   
@<TRIPOS>SUBSTRUCTURE
     1 MOL         1 TEMP              0 ****  ****    0 ROOT
