@<TRIPOS>MOLECULE
MOL
  189   185     1     0     0
SMALL
resp


@<TRIPOS>ATOM
      1 C1          0.1000   -4.7440    5.3370 c3        1 MOL     -0.345549
      2 C2          0.7430   -3.9910    4.1130 c         1 MOL      0.794289
      3 O1          0.9940   -2.8160    4.1930 o         1 MOL     -0.626836
      4 H1          0.5840   -5.7120    5.4620 hc        1 MOL      0.080018
      5 H2          0.2340   -4.1500    6.2410 hc        1 MOL      0.080018
      6 H3         -0.9650   -4.8920    5.1550 hc        1 MOL      0.080018
      7 N1          1.1680   -4.7740    3.1530 n         1 MOL     -0.739087
      8 C3          1.9020   -4.3120    2.0050 c3        1 MOL      0.553186
      9 C4          1.7920   -5.2930    0.8240 c         1 MOL      0.303965
     10 O2          2.0340   -6.5070    0.9060 o         1 MOL     -0.572998
     11 C5          3.3510   -4.0270    2.3730 c3        1 MOL     -0.247681
     12 C6          4.1470   -3.3180    1.2900 c         1 MOL      0.810530
     13 O3          5.3930   -3.2630    1.4080 o         1 MOL     -0.740089
     14 O4          3.6390   -2.6210    0.3700 o         1 MOL     -0.740089
     15 H4          0.8790   -5.7380    3.1860 hn        1 MOL      0.323410
     16 H5          1.4450   -3.3720    1.7090 h1        1 MOL      0.000187
     17 H6          3.7900   -5.0150    2.5230 hc        1 MOL      0.038869
     18 H7          3.5220   -3.4620    3.2800 hc        1 MOL      0.038869
     19 N2          1.5070   -4.7150   -0.3140 n         1 MOL     -0.027634
     20 C7          1.3120   -5.3720   -1.6160 c3        1 MOL      0.045057
     21 C8          2.4100   -4.9720   -2.6290 c         1 MOL      0.433844
     22 O5          2.6140   -5.7000   -3.6140 o         1 MOL     -0.574324
     23 C9         -0.0630   -4.8530   -1.9850 c3        1 MOL      0.222420
     24 C10        -1.2230   -5.3810   -1.0560 c3        1 MOL     -0.175641
     25 C11        -0.4500   -5.1760   -3.4030 c3        1 MOL     -0.144122
     26 C12        -2.7150   -5.1100   -1.1570 c3        1 MOL     -0.284493
     27 H8          1.2430   -3.7440   -0.2570 hn        1 MOL     -0.326013
     28 H9          1.3240   -6.4540   -1.5230 h1        1 MOL      0.050677
     29 H10        -0.0450   -3.7640   -2.0070 hc        1 MOL      0.045453
     30 H11        -1.0150   -5.1550   -0.0090 hc        1 MOL      0.046080
     31 H12        -1.0940   -6.4670   -0.9990 hc        1 MOL      0.046080
     32 H13        -1.3440   -4.6360   -3.6970 hc        1 MOL      0.020987
     33 H14         0.2900   -4.9770   -4.1770 hc        1 MOL      0.020987
     34 H15        -0.6110   -6.2520   -3.5230 hc        1 MOL      0.020987
     35 H16        -2.9770   -5.1910   -2.2130 hc        1 MOL      0.095885
     36 H17        -3.2170   -5.7280   -0.4190 hc        1 MOL      0.095885
     37 H18        -2.8330   -4.0890   -0.7970 hc        1 MOL      0.095885
     38 N3          3.0020   -3.7880   -2.4960 n         1 MOL     -0.318196
     39 C13         3.8400   -3.1910   -3.5590 c3        1 MOL      0.107508
     40 C14         5.1660   -2.6270   -3.0730 c         1 MOL      0.236142
     41 O6          5.9240   -2.1750   -3.9050 o         1 MOL     -0.518804
     42 C15         3.1050   -2.0370   -4.3060 c3        1 MOL     -0.299968
     43 C16         2.6170   -0.9020   -3.4030 c         1 MOL      0.712810
     44 O7          3.1180   -0.7130   -2.2250 o         1 MOL     -0.682160
     45 O8          1.5640   -0.2500   -3.7120 o         1 MOL     -0.682160
     46 H19         2.7960   -3.2160   -1.6880 hn        1 MOL      0.359865
     47 H20         4.1350   -3.9610   -4.2760 h1        1 MOL      0.095645
     48 H21         2.1760   -2.4920   -4.6420 hc        1 MOL      0.091393
     49 H22         3.6560   -1.6310   -5.1530 hc        1 MOL      0.091393
     50 N4          5.5140   -2.6450   -1.8040 n         1 MOL     -0.048466
     51 C17         6.7390   -2.1750   -1.1760 c3        1 MOL      0.025279
     52 C18         7.3080   -0.6950   -1.4910 c         1 MOL      0.268534
     53 O9          8.4850   -0.4040   -1.6860 o         1 MOL     -0.543970
     54 H23         4.9440   -3.2620   -1.2480 hn        1 MOL      0.093157
     55 H24         7.5340   -2.8520   -1.5050 h1        1 MOL      0.045760
     56 H25         6.8080   -2.3690   -0.1040 h1        1 MOL      0.045760
     57 N5          6.3430    0.1930   -1.6520 n         1 MOL     -0.004086
     58 C19         6.6090    1.6010   -2.0820 c3        1 MOL     -0.121358
     59 C20         7.1100    2.5500   -0.9740 c         1 MOL      0.392778
     60 O10         7.5410    3.6860   -1.2980 o         1 MOL     -0.537757
     61 C21         5.3430    2.2800   -2.7710 c3        1 MOL     -0.265752
     62 C22         4.0540    2.3020   -1.8970 c         1 MOL      0.706910
     63 O11         3.9950    1.7880   -0.7930 o         1 MOL     -0.683001
     64 O12         3.0730    2.9840   -2.3910 o         1 MOL     -0.683001
     65 H26         5.4060   -0.1630   -1.5610 hn        1 MOL      0.157704
     66 H27         7.3830    1.6250   -2.8500 h1        1 MOL      0.134172
     67 H28         5.1440    1.7260   -3.6890 hc        1 MOL      0.091442
     68 H29         5.4700    3.3270   -3.0380 hc        1 MOL      0.091442
     69 N6          6.9250    2.1570    0.2720 n         1 MOL     -0.163317
     70 C23         7.1810    3.0240    1.4440 c3        1 MOL     -0.172067
     71 C24         5.9960    3.8780    1.8650 c         1 MOL      0.557127
     72 O13         6.3010    4.8860    2.5410 o         1 MOL     -0.595838
     73 H30         6.5450    1.2420    0.4600 hn        1 MOL      0.181663
     74 H31         8.0490    3.6630    1.3060 h1        1 MOL      0.082921
     75 H32         7.3810    2.2600    2.2030 h1        1 MOL      0.082921
     76 N7          4.8380    3.6260    1.3180 n         1 MOL     -0.423685
     77 C25         3.5010    4.2250    1.7870 c3        1 MOL      0.005284
     78 C26         2.5470    3.0880    2.2320 c         1 MOL      0.492085
     79 O14         2.8700    1.9320    1.9690 o         1 MOL     -0.540118
     80 C27         2.8800    4.9910    0.6400 c3        1 MOL      0.048361
     81 C28         3.6830    6.2510    0.1910 c3        1 MOL     -0.316999
     82 C29         3.1830    6.8170   -1.1620 c         1 MOL      0.618206
     83 N8          3.0020    5.9930   -2.2000 n         1 MOL     -0.739534
     84 O15         2.9960    8.0060   -1.3180 o         1 MOL     -0.602493
     85 H33         4.7940    2.8540    0.6760 hn        1 MOL      0.401311
     86 H34         3.5850    4.9190    2.6240 h1        1 MOL      0.045030
     87 H35         1.9270    5.3980    0.9740 hc        1 MOL      0.016604
     88 H36         2.7570    4.2730   -0.1740 hc        1 MOL      0.016604
     89 H37         4.7460    6.0230    0.1270 hc        1 MOL      0.121064
     90 H38         3.5790    6.9760    0.9950 hc        1 MOL      0.121064
     91 H39         3.1700    5.0210   -2.0220 hn        1 MOL      0.358377
     92 H40         2.7100    6.4250   -3.0720 hn        1 MOL      0.358377
     93 N9          1.3800    3.4340    2.7310 n         1 MOL     -0.563337
     94 C30         0.2600    2.4780    2.7660 c3        1 MOL      0.330549
     95 C31        -0.9530    3.0720    2.0010 c         1 MOL      0.376672
     96 O16        -1.5620    4.0680    2.4120 o         1 MOL     -0.532470
     97 C32         0.0800    1.8920    4.2360 c3        1 MOL      0.205952
     98 C33        -0.3710    2.9370    5.2410 c3        1 MOL     -0.274925
     99 C34        -0.9210    0.6690    4.1610 c3        1 MOL     -0.274925
    100 H41         1.1920    4.3780    3.0070 hn        1 MOL      0.319169
    101 H42         0.4780    1.5740    2.2070 h1        1 MOL     -0.090686
    102 H43         1.0490    1.4640    4.5050 hc        1 MOL     -0.010122
    103 H44        -1.4250    3.1680    5.1150 hc        1 MOL      0.052963
    104 H45        -0.1090    2.6270    6.2540 hc        1 MOL      0.052963
    105 H46         0.1950    3.8430    5.0290 hc        1 MOL      0.052963
    106 H47        -1.8620    0.9910    3.7270 hc        1 MOL      0.052963
    107 H48        -0.4160   -0.1100    3.5760 hc        1 MOL      0.052963
    108 H49        -1.1330    0.3170    5.1700 hc        1 MOL      0.052963
    109 N10        -1.2870    2.3720    0.8950 n         1 MOL     -0.271704
    110 C35        -2.4340    2.5890    0.0110 c3        1 MOL      0.040869
    111 C36        -3.7360    2.2030    0.7770 c         1 MOL      0.026940
    112 O17        -3.7200    1.4020    1.6750 o         1 MOL     -0.163727
    113 C37        -2.3300    1.8270   -1.2870 c3        1 MOL     -0.258297
    114 C38        -3.5510    1.9260   -2.1230 c         1 MOL      0.625186
    115 N11        -3.9200    3.0980   -2.6620 n         1 MOL     -0.769774
    116 O18        -4.2850    1.0400   -2.2320 o         1 MOL     -0.445676
    117 H50        -0.8290    1.4790    0.8660 hn        1 MOL      0.199282
    118 H51        -2.3950    3.6250   -0.3140 h1        1 MOL      0.094675
    119 H52        -2.2840    0.7940   -0.9670 hc        1 MOL      0.124384
    120 H53        -1.4640    2.1860   -1.8460 hc        1 MOL      0.124384
    121 H54        -3.1950    3.8060   -2.6750 hn        1 MOL      0.346596
    122 H55        -4.8630    3.0890   -3.0000 hn        1 MOL      0.346596
    123 N12        -4.8400    2.8490    0.4620 n         1 MOL     -0.015779
    124 C39        -6.1410    2.5590    1.0430 c3        1 MOL      0.046220
    125 C40        -6.4910    1.1070    1.1040 c         1 MOL      0.464193
    126 O19        -7.0600    0.6160    2.0650 o         1 MOL     -0.558925
    127 C41        -7.2340    3.4820    0.4650 c3        1 MOL     -0.158748
    128 C42        -7.5000    3.2880   -1.0520 ca        1 MOL      0.046643
    129 C43        -8.3920    2.3030   -1.5350 ca        1 MOL     -0.123152
    130 C44        -6.7610    4.0470   -1.9500 ca        1 MOL     -0.123152
    131 C45        -8.6200    2.2450   -2.9240 ca        1 MOL     -0.362384
    132 C46        -7.0830    4.0880   -3.3310 ca        1 MOL     -0.362384
    133 C47        -7.9930    3.1610   -3.8500 ca        1 MOL      0.441688
    134 O20        -8.1400    3.0810   -5.1990 oh        1 MOL     -0.560009
    135 H56        -4.8230    3.5350   -0.2910 hn        1 MOL      0.078442
    136 H57        -6.0490    2.8050    2.0930 h1        1 MOL      0.035199
    137 H58        -6.8930    4.5170    0.5430 hc        1 MOL      0.057353
    138 H59        -8.1860    3.3480    0.9920 hc        1 MOL      0.057353
    139 H60        -8.9630    1.5990   -0.9540 ha        1 MOL      0.145614
    140 H61        -6.0460    4.6990   -1.4800 ha        1 MOL      0.145614
    141 H62        -9.2220    1.4160   -3.2760 ha        1 MOL      0.167130
    142 H63        -6.4770    4.7570   -3.9270 ha        1 MOL      0.167130
    143 H64        -8.8770    2.5350   -5.4910 ho        1 MOL      0.415255
    144 N13        -6.2430    0.4090   -0.0100 n         1 MOL     -0.096030
    145 C48        -6.4420   -1.0900   -0.0640 c3        1 MOL     -0.191151
    146 C49        -5.5250   -1.9090    0.8770 c         1 MOL      0.534783
    147 O21        -5.9120   -2.9990    1.2610 o         1 MOL     -0.491085
    148 C50        -6.1900   -1.5890   -1.4950 c3        1 MOL      0.160566
    149 C51        -7.3320   -1.4080   -2.5000 c3        1 MOL     -0.452771
    150 C52        -8.4240   -2.4570   -2.2390 c         1 MOL      0.802269
    151 O22        -8.4160   -3.5270   -2.8810 o         1 MOL     -0.744385
    152 O23        -9.4080   -2.2730   -1.4760 o         1 MOL     -0.744385
    153 H65        -5.7960    0.9300   -0.7490 hn        1 MOL      0.216949
    154 H66        -7.4660   -1.3680    0.1780 h1        1 MOL      0.113974
    155 H67        -6.0820   -2.6640   -1.3720 hc        1 MOL     -0.010130
    156 H68        -5.3030   -1.1460   -1.9450 hc        1 MOL     -0.010130
    157 H69        -6.9020   -1.5270   -3.4910 hc        1 MOL      0.081081
    158 H70        -7.7200   -0.3910   -2.4790 hc        1 MOL      0.081081
    159 N14        -4.3220   -1.4010    1.2490 n         1 MOL     -0.432144
    160 C53        -3.5120   -2.0920    2.2420 c3        1 MOL      0.004443
    161 C54        -3.9390   -1.7920    3.6710 c         1 MOL      0.377149
    162 O24        -3.9830   -2.7060    4.5160 o         1 MOL     -0.543745
    163 C55        -2.0600   -1.7150    2.0230 c3        1 MOL     -0.016086
    164 C56        -1.4280   -2.0720    0.6680 c3        1 MOL      0.041393
    165 C57         0.0090   -1.5270    0.4810 c         1 MOL      0.659093
    166 O25         0.6530   -2.0130   -0.4680 o         1 MOL     -0.593790
    167 O26         0.3910   -0.5410    1.0460 o         1 MOL     -0.593790
    168 H71        -4.0530   -0.4430    1.0830 hn        1 MOL      0.147063
    169 H72        -3.6180   -3.1620    2.0520 h1        1 MOL      0.093843
    170 H73        -1.5320   -2.1940    2.8400 hc        1 MOL      0.014250
    171 H74        -2.0700   -0.6270    2.1200 hc        1 MOL      0.014250
    172 H75        -2.0410   -1.6220   -0.1180 hc        1 MOL      0.003061
    173 H76        -1.3480   -3.1470    0.4850 hc        1 MOL      0.003061
    174 N15        -4.4950   -0.5790    3.9150 n         1 MOL      0.038102
    175 C58        -4.8750    0.0380    5.1700 c3        1 MOL     -0.152805
    176 H77        -5.3140    1.0170    4.9760 h1        1 MOL      0.061067
    177 H78        -5.6050   -0.5920    5.6800 h1        1 MOL      0.061067
    178 H79        -3.9930    0.1550    5.8000 h1        1 MOL      0.061067
    179 H80        -4.4350    0.0720    3.1500 hn        1 MOL      0.023725
    180 Ca1         2.7680   -0.1650    0.3350 Ca        1 MOL      1.715445
    181 O27         2.4330   -0.7480    3.0710 oh        1 MOL     -0.927146
    182 H81         1.7820   -1.4250    3.2830 ho        1 MOL      0.434566
    183 H82         2.5170   -0.2390    3.8850 ho        1 MOL      0.434566
    184 O28         1.2550    1.1830   -1.4000 oh        1 MOL     -0.927146
    185 H83         1.8370    1.9050   -1.6200 ho        1 MOL      0.434566
    186 H84         1.4560    0.5020   -2.0430 ho        1 MOL      0.434566
    187 O29         5.2520   -0.3060    1.3210 oh        1 MOL     -0.927146
    188 H85         5.3950   -0.0140    2.2200 ho        1 MOL      0.434566
    189 H86         5.6230   -1.1900    1.3050 ho        1 MOL      0.434566
@<TRIPOS>BOND
     1    1    2 1   
     2    1    4 1   
     3    1    5 1   
     4    1    6 1   
     5    2    3 2   
     6    2    7 1   
     7    7    8 1   
     8    7   15 1   
     9    8    9 1   
    10    8   11 1   
    11    8   16 1   
    12    9   10 2   
    13    9   19 1   
    14   11   12 1   
    15   11   17 1   
    16   11   18 1   
    17   12   13 1   
    18   12   14 1   
    19   19   20 1   
    20   19   27 1   
    21   20   21 1   
    22   20   23 1   
    23   20   28 1   
    24   21   22 2   
    25   21   38 1   
    26   23   24 1   
    27   23   25 1   
    28   23   29 1   
    29   24   26 1   
    30   24   30 1   
    31   24   31 1   
    32   25   32 1   
    33   25   33 1   
    34   25   34 1   
    35   26   35 1   
    36   26   36 1   
    37   26   37 1   
    38   38   39 1   
    39   38   46 1   
    40   39   40 1   
    41   39   42 1   
    42   39   47 1   
    43   40   41 2   
    44   40   50 1   
    45   42   43 1   
    46   42   48 1   
    47   42   49 1   
    48   43   44 1   
    49   43   45 1   
    50   50   51 1   
    51   50   54 1   
    52   51   52 1   
    53   51   55 1   
    54   51   56 1   
    55   52   53 2   
    56   52   57 1   
    57   57   58 1   
    58   57   65 1   
    59   58   59 1   
    60   58   61 1   
    61   58   66 1   
    62   59   60 2   
    63   59   69 1   
    64   61   62 1   
    65   61   67 1   
    66   61   68 1   
    67   62   63 1   
    68   62   64 1   
    69   69   70 1   
    70   69   73 1   
    71   70   71 1   
    72   70   74 1   
    73   70   75 1   
    74   71   72 2   
    75   71   76 1   
    76   76   77 1   
    77   76   85 1   
    78   77   78 1   
    79   77   80 1   
    80   77   86 1   
    81   78   79 2   
    82   78   93 1   
    83   80   81 1   
    84   80   87 1   
    85   80   88 1   
    86   81   82 1   
    87   81   89 1   
    88   81   90 1   
    89   82   83 1   
    90   82   84 2   
    91   83   91 1   
    92   83   92 1   
    93   93   94 1   
    94   93  100 1   
    95   94   95 1   
    96   94   97 1   
    97   94  101 1   
    98   95   96 2   
    99   95  109 1   
   100   97   98 1   
   101   97   99 1   
   102   97  102 1   
   103   98  103 1   
   104   98  104 1   
   105   98  105 1   
   106   99  106 1   
   107   99  107 1   
   108   99  108 1   
   109  109  110 1   
   110  109  117 1   
   111  110  111 1   
   112  110  113 1   
   113  110  118 1   
   114  111  112 2   
   115  111  123 1   
   116  113  114 1   
   117  113  119 1   
   118  113  120 1   
   119  114  115 1   
   120  114  116 2   
   121  115  121 1   
   122  115  122 1   
   123  123  124 1   
   124  123  135 1   
   125  124  125 1   
   126  124  127 1   
   127  124  136 1   
   128  125  126 2   
   129  125  144 1   
   130  127  128 1   
   131  127  137 1   
   132  127  138 1   
   133  128  129 ar  
   134  128  130 ar  
   135  129  131 ar  
   136  129  139 1   
   137  130  132 ar  
   138  130  140 1   
   139  131  133 ar  
   140  131  141 1   
   141  132  133 ar  
   142  132  142 1   
   143  133  134 1   
   144  134  143 1   
   145  144  145 1   
   146  144  153 1   
   147  145  146 1   
   148  145  148 1   
   149  145  154 1   
   150  146  147 2   
   151  146  159 1   
   152  148  149 1   
   153  148  155 1   
   154  148  156 1   
   155  149  150 1   
   156  149  157 1   
   157  149  158 1   
   158  150  151 1   
   159  150  152 1   
   160  159  160 1   
   161  159  168 1   
   162  160  161 1   
   163  160  163 1   
   164  160  169 1   
   165  161  162 2   
   166  161  174 1   
   167  163  164 1   
   168  163  170 1   
   169  163  171 1   
   170  164  165 1   
   171  164  172 1   
   172  164  173 1   
   173  165  166 1   
   174  165  167 1   
   175  174  175 1   
   176  174  179 1   
   177  175  176 1   
   178  175  177 1   
   179  175  178 1   
   180  181  182 1   
   181  181  183 1   
   182  184  185 1   
   183  184  186 1   
   184  187  188 1   
   185  187  189 1   
@<TRIPOS>SUBSTRUCTURE
     1 MOL         1 TEMP              0 ****  ****    0 ROOT
