@<TRIPOS>MOLECULE
MOL
  176   174     1     0     0
SMALL
resp


@<TRIPOS>ATOM
      1 C1          1.5310    3.4960    5.7910 c3        1 MOL     -0.277833
      2 C2          1.0670    2.9600    4.4490 c         1 MOL      0.818830
      3 O1          1.9050    2.8540    3.5540 o         1 MOL     -0.620157
      4 H1          2.4150    4.1170    5.6460 hc        1 MOL      0.063556
      5 H2          0.7370    4.0920    6.2400 hc        1 MOL      0.063556
      6 H3          1.7770    2.6630    6.4500 hc        1 MOL      0.063556
      7 N1         -0.2160    2.7720    4.2500 n         1 MOL     -0.626554
      8 C3         -0.8050    2.5410    2.9440 c3        1 MOL     -0.136349
      9 C4         -0.9690    3.8130    2.1590 c         1 MOL      0.840779
     10 O2         -1.3490    4.8390    2.7190 o         1 MOL     -0.617378
     11 C5         -2.1480    1.7820    3.1720 c3        1 MOL     -0.078270
     12 C6         -2.8380    1.2870    1.8970 c         1 MOL      0.658501
     13 O3         -2.4030    1.5700    0.7750 o         1 MOL     -0.723712
     14 O4         -3.9690    0.7540    2.0460 o         1 MOL     -0.723712
     15 H4         -0.9210    2.7370    4.9740 hn        1 MOL      0.332727
     16 H5         -0.1400    1.8680    2.4080 h1        1 MOL      0.006059
     17 H6         -2.8260    2.5640    3.5130 hc        1 MOL      0.050601
     18 H7         -2.0670    0.9590    3.8770 hc        1 MOL      0.050601
     19 N2         -0.5940    3.8360    0.8750 n         1 MOL     -0.474735
     20 C7         -0.3100    4.9860   -0.0300 c3        1 MOL     -0.176852
     21 C8         -1.4620    5.2200   -0.9820 c         1 MOL      0.593150
     22 O5         -1.3900    6.1240   -1.7850 o         1 MOL     -0.582089
     23 C9          0.9720    4.8430   -0.8060 c3        1 MOL      0.160404
     24 C10         1.7700    6.1220   -1.1630 c3        1 MOL     -0.026942
     25 C11         3.0980    5.7740   -1.7620 c3        1 MOL      0.289903
     26 C12         3.9870    6.9630   -2.1150 c3        1 MOL     -0.252339
     27 N3          3.4490    7.7920   -3.1330 n4        1 MOL     -0.161555
     28 H8         -0.3310    2.8970    0.6070 hn        1 MOL      0.338695
     29 H9         -0.2270    5.8230    0.6690 h1        1 MOL      0.100323
     30 H10         0.7180    4.3600   -1.7520 hc        1 MOL      0.046000
     31 H11         1.6070    4.1960   -0.1910 hc        1 MOL      0.046000
     32 H12         2.0190    6.7100   -0.2800 hc        1 MOL     -0.020905
     33 H13         1.3190    6.7560   -1.9270 hc        1 MOL     -0.020905
     34 H14         2.8470    5.2030   -2.6590 hc        1 MOL     -0.051065
     35 H15         3.5770    5.0920   -1.0500 hc        1 MOL     -0.051065
     36 H16         4.8380    6.4440   -2.5560 hx        1 MOL      0.144025
     37 H17         4.1710    7.5380   -1.2130 hx        1 MOL      0.144025
     38 H18         3.0810    7.2500   -3.9100 hn        1 MOL      0.287905
     39 H19         2.6920    8.3410   -2.7550 hn        1 MOL      0.287905
     40 H20         4.0650    8.5330   -3.4080 hn        1 MOL      0.287905
     41 N4         -2.5320    4.4470   -0.9480 n         1 MOL     -0.325560
     42 C13        -3.6850    4.5550   -1.7920 c3        1 MOL     -0.028903
     43 C14        -4.9830    3.9990   -1.1650 c         1 MOL      0.428843
     44 O6         -6.0280    4.1320   -1.7620 o         1 MOL     -0.517909
     45 C15        -3.3940    3.7730   -3.0940 c3        1 MOL     -0.275434
     46 C16        -2.9170    2.3610   -2.8660 c         1 MOL      0.816947
     47 O7         -1.7040    2.0710   -2.9870 o         1 MOL     -0.766287
     48 O8         -3.6680    1.4540   -2.4640 o         1 MOL     -0.766287
     49 H21        -2.4620    3.7640   -0.2010 hn        1 MOL      0.124522
     50 H22        -3.9540    5.6070   -1.9490 h1        1 MOL      0.130208
     51 H23        -2.6010    4.3550   -3.5650 hc        1 MOL      0.082532
     52 H24        -4.3450    3.7060   -3.6160 hc        1 MOL      0.082532
     53 N5         -5.0370    3.3800    0.0060 n         1 MOL     -0.106159
     54 C17        -6.1360    3.0030    0.8530 c3        1 MOL     -0.459497
     55 C18        -6.7780    1.6590    0.5120 c         1 MOL      0.691263
     56 O9         -7.8270    1.3610    1.0470 o         1 MOL     -0.603681
     57 H25        -4.1210    3.3510    0.4450 hn        1 MOL      0.228479
     58 H26        -7.0150    3.6360    0.7880 h1        1 MOL      0.180034
     59 H27        -5.7850    2.7960    1.8580 h1        1 MOL      0.180034
     60 N6         -6.2850    0.9090   -0.4940 n         1 MOL     -0.350194
     61 C19        -6.8240   -0.3450   -0.8360 c3        1 MOL      0.152004
     62 C20        -6.7740   -1.4410    0.2490 c         1 MOL      0.323824
     63 O10        -7.3360   -2.5270    0.0380 o         1 MOL     -0.537634
     64 C21        -6.1310   -0.8860   -2.0620 c3        1 MOL     -0.538605
     65 C22        -4.8520   -1.6040   -1.8630 c         1 MOL      0.719329
     66 N7         -4.6910   -2.7270   -2.4630 n         1 MOL     -0.526751
     67 O11        -3.9570   -1.3090   -1.0760 o         1 MOL     -0.722800
     68 H28        -5.4700    1.2490   -0.9730 hn        1 MOL      0.231332
     69 H29        -7.8840   -0.2520   -1.0970 h1        1 MOL      0.088631
     70 H30        -6.0970   -0.1090   -2.8190 hc        1 MOL      0.170425
     71 H31        -6.8400   -1.5830   -2.5230 hc        1 MOL      0.170425
     72 H32        -5.3930   -3.0840   -3.0980 hn        1 MOL      0.276648
     73 H33        -3.7810   -3.1570   -2.4660 hn        1 MOL      0.276648
     74 N8         -6.0530   -1.2430    1.3460 n         1 MOL     -0.030845
     75 C23        -5.9960   -2.1480    2.5100 c3        1 MOL     -0.360562
     76 C24        -4.7660   -3.0870    2.5780 c         1 MOL      0.599206
     77 O12        -4.7410   -3.9280    3.4680 o         1 MOL     -0.567844
     78 H34        -5.5190   -0.4040    1.5390 hn        1 MOL      0.208410
     79 H35        -6.9030   -2.7490    2.5450 h1        1 MOL      0.152939
     80 H36        -6.0800   -1.4230    3.3130 h1        1 MOL      0.152939
     81 N9         -3.8620   -3.0360    1.6210 n         1 MOL     -0.390230
     82 C25        -2.6520   -3.8050    1.7320 c3        1 MOL      0.260334
     83 C26        -1.4510   -3.0280    1.1730 c         1 MOL      0.338156
     84 O13        -1.6330   -2.0380    0.4100 o         1 MOL     -0.501473
     85 C27        -2.7080   -5.2210    1.1450 c3        1 MOL     -0.282181
     86 C28        -2.7830   -5.2390   -0.3830 ca        1 MOL      0.164431
     87 C29        -1.6150   -5.0780   -1.2000 ca        1 MOL     -0.196750
     88 C30        -4.0100   -5.6840   -0.9720 ca        1 MOL     -0.196750
     89 C31        -1.7190   -5.3180   -2.6130 ca        1 MOL     -0.264167
     90 C32        -4.0470   -5.9540   -2.3570 ca        1 MOL     -0.264167
     91 C33        -2.9460   -5.7840   -3.1780 ca        1 MOL      0.370950
     92 O14        -3.0950   -6.2100   -4.4940 oh        1 MOL     -0.580064
     93 H37        -4.0300   -2.3810    0.8700 hn        1 MOL      0.292774
     94 H38        -2.5030   -3.9700    2.7970 h1        1 MOL      0.027370
     95 H39        -3.6530   -5.6400    1.5160 hc        1 MOL      0.094498
     96 H40        -1.8210   -5.7980    1.3930 hc        1 MOL      0.094498
     97 H41        -0.6330   -4.7890   -0.8480 ha        1 MOL      0.170876
     98 H42        -4.7580   -5.9690   -0.2470 ha        1 MOL      0.170876
     99 H43        -0.8660   -5.1440   -3.2420 ha        1 MOL      0.141266
    100 H44        -4.9870   -6.3140   -2.7470 ha        1 MOL      0.141266
    101 H45        -3.9030   -6.6860   -4.7210 ho        1 MOL      0.412720
    102 N10        -0.2980   -3.4520    1.6590 n         1 MOL     -0.386894
    103 C34         0.9690   -2.7790    1.4490 c3        1 MOL      0.027425
    104 C35         2.1160   -3.6580    1.0020 c         1 MOL      0.529403
    105 O15         2.0110   -4.8460    1.1360 o         1 MOL     -0.551570
    106 C36         1.4490   -1.9500    2.6850 c3        1 MOL      0.008809
    107 C37         1.9630   -2.8000    3.8120 c3        1 MOL     -0.093147
    108 C38         0.4550   -0.9070    3.1400 c3        1 MOL     -0.013794
    109 C39         2.6020   -2.0750    4.8980 c3        1 MOL     -0.032807
    110 H46        -0.2330   -4.3260    2.1610 hn        1 MOL      0.289048
    111 H47         0.7440   -2.0550    0.6680 h1        1 MOL      0.041840
    112 H48         2.2840   -1.3440    2.3090 hc        1 MOL     -0.006611
    113 H49         2.7610   -3.4490    3.4370 hc        1 MOL      0.049309
    114 H50         1.0800   -3.2780    4.2190 hc        1 MOL      0.049309
    115 H51        -0.0280   -0.4140    2.2950 hc        1 MOL      0.032508
    116 H52        -0.2910   -1.3800    3.7890 hc        1 MOL      0.032508
    117 H53         0.9580   -0.1350    3.7190 hc        1 MOL      0.032508
    118 H54         1.8560   -1.4100    5.3430 hc        1 MOL      0.008802
    119 H55         2.9710   -2.8130    5.6030 hc        1 MOL      0.008802
    120 H56         3.4130   -1.4410    4.5430 hc        1 MOL      0.008802
    121 N11         3.1720   -3.0030    0.4780 n         1 MOL     -0.313837
    122 C40         4.2210   -3.7080   -0.3230 c3        1 MOL      0.101094
    123 C41         5.5360   -3.1660    0.0330 c         1 MOL      0.370359
    124 O16         5.6170   -2.1220    0.7060 o         1 MOL     -0.354318
    125 C42         3.9190   -3.2940   -1.7810 c3        1 MOL     -0.159276
    126 O17         3.9390   -1.8800   -1.9320 oh        1 MOL     -0.361508
    127 H57         3.1490   -2.0070    0.3160 hn        1 MOL      0.169679
    128 H58         4.2410   -4.8000   -0.2400 h1        1 MOL      0.088203
    129 H59         2.9370   -3.6590   -2.0890 h1        1 MOL      0.094731
    130 H60         4.6840   -3.7470   -2.4130 h1        1 MOL      0.094731
    131 H61         3.0810   -1.6620   -2.3200 ho        1 MOL      0.370704
    132 N12         6.6260   -3.7430   -0.3040 n         1 MOL     -0.377772
    133 C43         8.0670   -3.2340   -0.1350 c3        1 MOL      0.077296
    134 C44         8.1550   -1.7770   -0.7450 c         1 MOL      0.464731
    135 O18         8.7010   -0.8610   -0.0490 o         1 MOL     -0.470481
    136 C45         8.9730   -4.2190   -0.8510 c3        1 MOL     -0.252964
    137 H62         6.6390   -4.6270   -0.7900 hn        1 MOL      0.277180
    138 H63         8.2790   -3.1400    0.9250 h1        1 MOL      0.105070
    139 H64         8.6160   -5.2350   -0.6590 hc        1 MOL      0.080484
    140 H65         8.9600   -4.1620   -1.9360 hc        1 MOL      0.080484
    141 H66         9.9710   -4.0610   -0.4470 hc        1 MOL      0.080484
    142 N13         7.4730   -1.6330   -1.9330 n         1 MOL     -0.458359
    143 C46         7.3700   -0.2620   -2.4980 c3        1 MOL      0.183494
    144 C47         6.6190    0.8170   -1.6280 c         1 MOL      0.341870
    145 O19         7.1100    1.9470   -1.4830 o         1 MOL     -0.514720
    146 C48         6.5940   -0.5310   -3.7900 c3        1 MOL     -0.322248
    147 H67         7.0610   -2.4320   -2.3800 hn        1 MOL      0.326697
    148 H68         8.3430    0.1740   -2.7120 h1        1 MOL      0.067271
    149 H69         5.5650   -0.7550   -3.5290 hc        1 MOL      0.081869
    150 H70         6.4660    0.3340   -4.4490 hc        1 MOL      0.081869
    151 H71         7.0670   -1.3770   -4.2990 hc        1 MOL      0.081869
    152 N14         5.5730    0.3910   -0.9190 n         1 MOL      0.032699
    153 C49         4.8110    1.3330   -0.0920 c3        1 MOL      0.053335
    154 C50         5.4440    1.5400    1.3190 c         1 MOL      0.376525
    155 O20         5.6230    2.6460    1.8000 o         1 MOL     -0.520285
    156 C51         3.3370    0.9270    0.1040 c3        1 MOL     -0.035053
    157 C52         2.5310    1.3280   -1.1580 c3        1 MOL      0.166096
    158 C53         1.0730    0.8960   -0.9940 c         1 MOL      0.741175
    159 O21         0.6100    0.2390   -1.9260 o         1 MOL     -0.782042
    160 O22         0.3290    1.2730   -0.0720 o         1 MOL     -0.782042
    161 H72         5.3380   -0.5810   -0.9900 hn        1 MOL     -0.142949
    162 H73         4.8000    2.2950   -0.6130 h1        1 MOL      0.036897
    163 H74         2.8540    1.3780    0.9720 hc        1 MOL      0.045931
    164 H75         3.2610   -0.1530    0.2030 hc        1 MOL      0.045931
    165 H76         2.9160    0.8750   -2.0630 hc        1 MOL     -0.083637
    166 H77         2.5220    2.4090   -1.3460 hc        1 MOL     -0.083637
    167 N15         6.0810    0.5010    1.9300 n         1 MOL     -0.041043
    168 C54         7.0070    0.5390    3.0900 c3        1 MOL     -0.267276
    169 H78         7.7470    1.3260    2.9380 h1        1 MOL      0.107593
    170 H79         6.4430    0.7440    3.9990 h1        1 MOL      0.107593
    171 H80         7.5130   -0.4220    3.1830 h1        1 MOL      0.107593
    172 H81         5.8390   -0.3960    1.5260 hn        1 MOL      0.071872
    173 Ca1        -1.8180    0.1130   -1.1240 Ca        1 MOL      1.752944
    174 O23        -1.4980   -1.9000   -3.0950 oh        1 MOL     -0.859266
    175 H82        -0.6200   -2.2510   -3.2650 ho        1 MOL      0.421044
    176 H83        -1.9970   -2.1110   -3.8800 ho        1 MOL      0.421044
@<TRIPOS>BOND
     1    1    2 1   
     2    1    4 1   
     3    1    5 1   
     4    1    6 1   
     5    2    3 2   
     6    2    7 1   
     7    7    8 1   
     8    7   15 1   
     9    8    9 1   
    10    8   11 1   
    11    8   16 1   
    12    9   10 2   
    13    9   19 1   
    14   11   12 1   
    15   11   17 1   
    16   11   18 1   
    17   12   13 1   
    18   12   14 1   
    19   19   20 1   
    20   19   28 1   
    21   20   21 1   
    22   20   23 1   
    23   20   29 1   
    24   21   22 2   
    25   21   41 1   
    26   23   24 1   
    27   23   30 1   
    28   23   31 1   
    29   24   25 1   
    30   24   32 1   
    31   24   33 1   
    32   25   26 1   
    33   25   34 1   
    34   25   35 1   
    35   26   27 1   
    36   26   36 1   
    37   26   37 1   
    38   27   38 1   
    39   27   39 1   
    40   27   40 1   
    41   41   42 1   
    42   41   49 1   
    43   42   43 1   
    44   42   45 1   
    45   42   50 1   
    46   43   44 2   
    47   43   53 1   
    48   45   46 1   
    49   45   51 1   
    50   45   52 1   
    51   46   47 1   
    52   46   48 1   
    53   53   54 1   
    54   53   57 1   
    55   54   55 1   
    56   54   58 1   
    57   54   59 1   
    58   55   56 2   
    59   55   60 1   
    60   60   61 1   
    61   60   68 1   
    62   61   62 1   
    63   61   64 1   
    64   61   69 1   
    65   62   63 2   
    66   62   74 1   
    67   64   65 1   
    68   64   70 1   
    69   64   71 1   
    70   65   66 1   
    71   65   67 2   
    72   66   72 1   
    73   66   73 1   
    74   74   75 1   
    75   74   78 1   
    76   75   76 1   
    77   75   79 1   
    78   75   80 1   
    79   76   77 2   
    80   76   81 1   
    81   81   82 1   
    82   81   93 1   
    83   82   83 1   
    84   82   85 1   
    85   82   94 1   
    86   83   84 2   
    87   83  102 1   
    88   85   86 1   
    89   85   95 1   
    90   85   96 1   
    91   86   87 ar  
    92   86   88 ar  
    93   87   89 ar  
    94   87   97 1   
    95   88   90 ar  
    96   88   98 1   
    97   89   91 ar  
    98   89   99 1   
    99   90   91 ar  
   100   90  100 1   
   101   91   92 1   
   102   92  101 1   
   103  102  103 1   
   104  102  110 1   
   105  103  104 1   
   106  103  106 1   
   107  103  111 1   
   108  104  105 2   
   109  104  121 1   
   110  106  107 1   
   111  106  108 1   
   112  106  112 1   
   113  107  109 1   
   114  107  113 1   
   115  107  114 1   
   116  108  115 1   
   117  108  116 1   
   118  108  117 1   
   119  109  118 1   
   120  109  119 1   
   121  109  120 1   
   122  121  122 1   
   123  121  127 1   
   124  122  123 1   
   125  122  125 1   
   126  122  128 1   
   127  123  124 2   
   128  123  132 1   
   129  125  126 1   
   130  125  129 1   
   131  125  130 1   
   132  126  131 1   
   133  132  133 1   
   134  132  137 1   
   135  133  134 1   
   136  133  136 1   
   137  133  138 1   
   138  134  135 2   
   139  134  142 1   
   140  136  139 1   
   141  136  140 1   
   142  136  141 1   
   143  142  143 1   
   144  142  147 1   
   145  143  144 1   
   146  143  146 1   
   147  143  148 1   
   148  144  145 2   
   149  144  152 1   
   150  146  149 1   
   151  146  150 1   
   152  146  151 1   
   153  152  153 1   
   154  152  161 1   
   155  153  154 1   
   156  153  156 1   
   157  153  162 1   
   158  154  155 2   
   159  154  167 1   
   160  156  157 1   
   161  156  163 1   
   162  156  164 1   
   163  157  158 1   
   164  157  165 1   
   165  157  166 1   
   166  158  159 1   
   167  158  160 1   
   168  167  168 1   
   169  167  172 1   
   170  168  169 1   
   171  168  170 1   
   172  168  171 1   
   173  174  175 1   
   174  174  176 1   
@<TRIPOS>SUBSTRUCTURE
     1 MOL         1 TEMP              0 ****  ****    0 ROOT
