@<TRIPOS>MOLECULE
MOL
  175   173     1     0     0
SMALL
resp


@<TRIPOS>ATOM
      1 C1         -0.4480   -3.3400    6.1360 c3        1 MOL     -0.448687
      2 C2          0.0590   -3.4480    4.6710 c         1 MOL      0.697922
      3 O1         -0.7790   -3.8170    3.8370 o         1 MOL     -0.544579
      4 H1         -1.2110   -2.5650    6.1990 hc        1 MOL      0.111460
      5 H2         -0.8740   -4.2950    6.4440 hc        1 MOL      0.111460
      6 H3          0.3850   -3.0850    6.7910 hc        1 MOL      0.111460
      7 N1          1.3350   -3.1390    4.3290 n         1 MOL     -0.645082
      8 C3          1.9650   -3.1880    2.9600 c3        1 MOL      0.169516
      9 C4          1.7990   -4.4680    2.1200 c         1 MOL      0.570858
     10 O2          1.9490   -5.5740    2.6560 o         1 MOL     -0.574932
     11 C5          3.4680   -2.8330    3.1410 c3        1 MOL     -0.316148
     12 C6          4.1140   -2.1110    1.9390 c         1 MOL      0.781733
     13 O3          5.2480   -1.6540    2.0430 o         1 MOL     -0.692813
     14 O4          3.4320   -1.9880    0.9030 o         1 MOL     -0.692813
     15 H4          1.9210   -2.8670    5.1120 hn        1 MOL      0.327253
     16 H5          1.5160   -2.3430    2.4410 h1        1 MOL      0.068686
     17 H6          4.0290   -3.7620    3.2130 hc        1 MOL      0.066851
     18 H7          3.6420   -2.3120    4.0850 hc        1 MOL      0.066851
     19 N2          1.6930   -4.2430    0.7770 n         1 MOL     -0.579154
     20 C7          1.6440   -5.3250   -0.1530 c3        1 MOL      0.259457
     21 C8          2.6570   -5.1140   -1.2790 c         1 MOL      0.398612
     22 O5          2.5240   -5.8380   -2.2650 o         1 MOL     -0.526426
     23 C9          0.1940   -5.4370   -0.6260 c3        1 MOL     -0.261226
     24 H8          1.7340   -3.2990    0.4160 hn        1 MOL      0.644818
     25 H9          1.8400   -6.2450    0.3860 h1        1 MOL      0.021636
     26 H10         0.0540   -6.3150   -1.2570 hc        1 MOL      0.060504
     27 H11        -0.2830   -5.6630    0.3260 hc        1 MOL      0.060504
     28 H12        -0.1840   -4.5700   -1.1750 hc        1 MOL      0.060504
     29 N3          3.5780   -4.1280   -1.1820 n         1 MOL     -0.432030
     30 C10         4.5600   -3.8990   -2.3310 c3        1 MOL      0.227872
     31 C11         5.8520   -3.1880   -1.9100 c         1 MOL      0.331658
     32 O6          6.8450   -3.2480   -2.6210 o         1 MOL     -0.543498
     33 C12         3.8400   -3.1880   -3.5050 c3        1 MOL     -0.328350
     34 C13         2.8340   -2.1320   -3.0890 c         1 MOL      0.818223
     35 O7          3.1480   -1.3130   -2.1870 o         1 MOL     -0.697559
     36 O8          1.7590   -1.9690   -3.7400 o         1 MOL     -0.697559
     37 H13         3.5450   -3.5720   -0.3410 hn        1 MOL      0.098652
     38 H14         4.7780   -4.9160   -2.6580 h1        1 MOL      0.051042
     39 H15         3.3270   -4.0520   -3.9470 hc        1 MOL      0.067618
     40 H16         4.6010   -2.7150   -4.1300 hc        1 MOL      0.067618
     41 N4          5.8930   -2.5170   -0.7610 n         1 MOL     -0.204494
     42 C14         7.0480   -1.6500   -0.4260 c3        1 MOL     -0.207761
     43 C15         7.0330   -0.2380   -1.0350 c         1 MOL      0.450541
     44 O9          8.0440    0.4720   -0.8130 o         1 MOL     -0.616225
     45 H17         5.1900   -2.6740   -0.0520 hn        1 MOL      0.225066
     46 H18         7.9090   -2.2210   -0.7460 h1        1 MOL      0.127866
     47 H19         7.2460   -1.6240    0.6420 h1        1 MOL      0.127866
     48 N5          5.9800    0.2340   -1.6640 n         1 MOL     -0.142355
     49 C16         6.0070    1.4980   -2.4890 c3        1 MOL     -0.045700
     50 C17         5.9810    2.8090   -1.6480 c         1 MOL      0.421744
     51 O10         5.9450    3.8580   -2.2270 o         1 MOL     -0.527807
     52 C18         4.8300    1.6200   -3.4610 c3        1 MOL     -0.113933
     53 C19         3.5400    2.0930   -2.7700 c         1 MOL      0.283483
     54 N6          2.4980    2.4460   -3.5220 n         1 MOL     -0.511061
     55 O11         3.3560    1.9960   -1.5390 o         1 MOL     -0.227518
     56 H20         5.1570   -0.3530   -1.7400 hn        1 MOL      0.206648
     57 H21         6.9440    1.5020   -3.0500 h1        1 MOL      0.105511
     58 H22         4.7920    0.6800   -4.0110 hc        1 MOL      0.059157
     59 H23         5.1080    2.3960   -4.1820 hc        1 MOL      0.059157
     60 H24         2.6120    2.5570   -4.5240 hn        1 MOL      0.305841
     61 H25         1.5640    2.6510   -3.2150 hn        1 MOL      0.305841
     62 N7          5.9930    2.8390   -0.3280 n         1 MOL     -0.120747
     63 C20         6.2780    3.9750    0.4940 c3        1 MOL     -0.204818
     64 C21         5.0130    4.6670    1.0170 c         1 MOL      0.450591
     65 O12         5.1120    5.7480    1.6370 o         1 MOL     -0.570089
     66 H26         5.9710    1.9490    0.1560 hn        1 MOL      0.177798
     67 H27         6.9330    4.6750   -0.0260 h1        1 MOL      0.106861
     68 H28         6.8500    3.7110    1.3800 h1        1 MOL      0.106861
     69 N8          3.8380    4.1560    0.6890 n         1 MOL     -0.046940
     70 C22         2.5190    4.7010    1.1290 c3        1 MOL     -0.245091
     71 C23         1.4530    3.6060    1.4410 c         1 MOL      0.398512
     72 O13         1.6710    2.4010    1.0510 o         1 MOL     -0.579275
     73 C24         1.8430    5.6550    0.1440 c3        1 MOL      0.516421
     74 C25         2.7270    6.8410   -0.1600 c3        1 MOL     -0.577279
     75 O14         1.7450    4.9240   -1.0590 oh        1 MOL     -0.555854
     76 H29         3.8920    3.3580    0.0690 hn        1 MOL      0.060595
     77 H30         2.7420    5.1910    2.0710 h1        1 MOL      0.098972
     78 H31         0.8460    5.9200    0.5060 h1        1 MOL     -0.041251
     79 H32         1.6420    4.0050   -0.8100 ho        1 MOL      0.307197
     80 H33         3.6890    6.6150   -0.6140 hc        1 MOL      0.150065
     81 H34         2.1980    7.5250   -0.8370 hc        1 MOL      0.150065
     82 H35         2.9610    7.2810    0.8080 hc        1 MOL      0.150065
     83 N9          0.2900    3.8940    2.0110 n         1 MOL     -0.203821
     84 C26        -0.8840    3.1230    2.1300 c3        1 MOL     -0.027857
     85 C27        -1.5930    3.3060    0.7800 c         1 MOL      0.445711
     86 O15        -2.2650    4.3250    0.5270 o         1 MOL     -0.559562
     87 C28        -1.8560    3.3950    3.2390 c3        1 MOL      0.030806
     88 C29        -1.1370    3.2820    4.6270 c3        1 MOL      0.156181
     89 C30        -3.1330    2.5400    3.1730 c3        1 MOL     -0.123436
     90 C31        -1.7340    4.0510    5.7330 c3        1 MOL     -0.155477
     91 H36         0.1900    4.8010    2.4340 hn        1 MOL      0.216574
     92 H37        -0.5240    2.0880    2.1760 h1        1 MOL      0.078215
     93 H38        -2.0780    4.4610    3.1580 hc        1 MOL     -0.000635
     94 H39        -0.0930    3.5840    4.5330 hc        1 MOL     -0.039455
     95 H40        -1.0350    2.2160    4.8380 hc        1 MOL     -0.039455
     96 H41        -3.8060    2.7290    4.0140 hc        1 MOL      0.041826
     97 H42        -3.7400    2.7990    2.3110 hc        1 MOL      0.041826
     98 H43        -2.8190    1.4950    3.2920 hc        1 MOL      0.041826
     99 H44        -2.6060    3.5230    6.1080 hc        1 MOL      0.024746
    100 H45        -1.0850    4.2760    6.5780 hc        1 MOL      0.024746
    101 H46        -1.9890    5.0550    5.3850 hc        1 MOL      0.024746
    102 N10        -1.5720    2.2470   -0.0510 n         1 MOL     -0.233091
    103 C32        -2.4640    2.0490   -1.2220 c3        1 MOL      0.013075
    104 C33        -3.8810    1.4960   -0.8910 c         1 MOL      0.476572
    105 O16        -4.1340    0.8460    0.1210 o         1 MOL     -0.254956
    106 C34        -1.8560    1.0650   -2.2060 c3        1 MOL     -0.308634
    107 C35        -0.3940    1.5070   -2.3930 c         1 MOL      0.787705
    108 O17        -0.1470    2.3660   -3.2570 o         1 MOL     -0.691345
    109 O18         0.5370    1.0450   -1.7110 o         1 MOL     -0.691345
    110 H47        -0.8770    1.5260    0.0840 hn        1 MOL      0.257474
    111 H48        -2.6570    2.9580   -1.7930 h1        1 MOL      0.079713
    112 H49        -2.2750    1.2010   -3.2010 hc        1 MOL      0.103828
    113 H50        -1.8170    0.0490   -1.7970 hc        1 MOL      0.103828
    114 N11        -4.8590    1.6910   -1.8210 n         1 MOL     -0.806137
    115 C36        -6.2230    1.1960   -1.5520 c3        1 MOL      0.692663
    116 C37        -6.3640   -0.3600   -1.3020 c         1 MOL      0.201771
    117 O19        -7.2690   -0.7210   -0.4600 o         1 MOL     -0.500836
    118 C38        -7.1700    1.7230   -2.6510 c3        1 MOL     -0.437918
    119 C39        -8.6380    1.5000   -2.3830 ca        1 MOL      0.268195
    120 C40        -9.4330    0.4800   -2.9740 ca        1 MOL     -0.272673
    121 C41        -9.2670    2.2960   -1.4540 ca        1 MOL     -0.272673
    122 C42       -10.7430    0.1780   -2.5450 ca        1 MOL     -0.023434
    123 C43       -10.5730    2.1290   -1.0070 ca        1 MOL     -0.023434
    124 C44       -11.2910    1.0460   -1.5720 ca        1 MOL     -0.194742
    125 H51        -4.7400    2.3020   -2.6140 hn        1 MOL      0.375270
    126 H52        -6.5560    1.6450   -0.6140 h1        1 MOL     -0.015930
    127 H53        -7.0250    1.1530   -3.5740 hc        1 MOL      0.093076
    128 H54        -6.8550    2.7660   -2.7530 hc        1 MOL      0.093076
    129 H55        -8.9670   -0.1480   -3.7230 ha        1 MOL      0.129943
    130 H56        -8.6860    3.0610   -0.9640 ha        1 MOL      0.129943
    131 H57       -11.2800   -0.6750   -2.9480 ha        1 MOL      0.102237
    132 H58       -11.0900    2.8210   -0.3590 ha        1 MOL      0.102237
    133 H59       -12.3070    0.7810   -1.3230 ha        1 MOL      0.106263
    134 N12        -5.5540   -1.2220   -1.8750 n         1 MOL      0.002346
    135 C45        -5.4800   -2.6210   -1.5170 c3        1 MOL      0.084492
    136 C46        -4.9260   -2.9990   -0.1810 c         1 MOL      0.323880
    137 O20        -4.8490   -4.1640    0.1330 o         1 MOL     -0.519933
    138 C47        -4.7180   -3.3340   -2.6720 c3        1 MOL     -0.195096
    139 C48        -5.0950   -2.5070   -3.8640 c3        1 MOL      0.035288
    140 C49        -4.9700   -1.1160   -3.2120 c3        1 MOL     -0.072890
    141 H60        -6.4920   -3.0180   -1.4720 h1        1 MOL      0.055054
    142 H61        -3.6510   -3.2400   -2.5100 hc        1 MOL      0.099020
    143 H62        -4.9950   -4.3820   -2.6490 hc        1 MOL      0.099020
    144 H63        -4.4690   -2.6300   -4.7420 hc        1 MOL      0.012276
    145 H64        -6.1330   -2.7640   -4.0510 hc        1 MOL      0.012276
    146 H65        -3.9070   -0.9130   -3.0790 h1        1 MOL      0.051865
    147 H66        -5.4240   -0.3740   -3.8730 h1        1 MOL      0.051865
    148 N13        -4.3950   -1.9900    0.5520 n         1 MOL      0.007375
    149 C50        -3.7970   -2.1050    1.9100 c3        1 MOL     -0.149406
    150 C51        -4.6270   -1.3470    2.9640 c         1 MOL      0.444223
    151 O21        -4.6820   -1.7150    4.1220 o         1 MOL     -0.531206
    152 C52        -2.3640   -1.4870    1.8640 c3        1 MOL      0.142414
    153 C53        -1.5430   -2.1950    0.7940 c3        1 MOL     -0.055641
    154 C54        -0.2500   -1.3910    0.5490 c         1 MOL      0.698973
    155 O22         0.6180   -1.9180   -0.1820 o         1 MOL     -0.791618
    156 O23         0.0650   -0.3210    1.0810 o         1 MOL     -0.791618
    157 H67        -4.4990   -1.0370    0.2220 hn        1 MOL     -0.131035
    158 H68        -3.7460   -3.1500    2.2120 h1        1 MOL      0.122780
    159 H69        -1.7730   -1.6870    2.7530 hc        1 MOL     -0.019141
    160 H70        -2.4280   -0.4030    1.7330 hc        1 MOL     -0.019141
    161 H71        -2.0580   -2.3030   -0.1650 hc        1 MOL      0.041365
    162 H72        -1.3250   -3.1710    1.2170 hc        1 MOL      0.041365
    163 N14        -5.2530   -0.1980    2.4980 n         1 MOL     -0.064614
    164 C55        -6.2010    0.5140    3.3220 c3        1 MOL     -0.160134
    165 H73        -6.7260    1.2520    2.7160 h1        1 MOL      0.058520
    166 H74        -6.9200   -0.1900    3.7400 h1        1 MOL      0.058520
    167 H75        -5.6730    1.0190    4.1320 h1        1 MOL      0.058520
    168 H76        -5.0340    0.1170    1.5700 hn        1 MOL      0.058435
    169 Ca1         2.2790    0.0560   -0.1200 Ca        1 MOL      1.476729
    170 O24         4.5640    0.6790    1.1410 oh        1 MOL     -0.697616
    171 H77         4.8510    1.2620    1.8480 ho        1 MOL      0.351609
    172 H78         4.8630   -0.1840    1.4160 ho        1 MOL      0.351609
    173 O25         2.1640    0.1860    2.7850 oh        1 MOL     -0.697616
    174 H79         1.2670    0.0920    2.4730 ho        1 MOL      0.351609
    175 H80         2.0780    0.2760    3.7410 ho        1 MOL      0.351609
@<TRIPOS>BOND
     1    1    2 1   
     2    1    4 1   
     3    1    5 1   
     4    1    6 1   
     5    2    3 2   
     6    2    7 1   
     7    7    8 1   
     8    7   15 1   
     9    8    9 1   
    10    8   11 1   
    11    8   16 1   
    12    9   10 2   
    13    9   19 1   
    14   11   12 1   
    15   11   17 1   
    16   11   18 1   
    17   12   13 1   
    18   12   14 1   
    19   19   20 1   
    20   19   24 1   
    21   20   21 1   
    22   20   23 1   
    23   20   25 1   
    24   21   22 2   
    25   21   29 1   
    26   23   26 1   
    27   23   27 1   
    28   23   28 1   
    29   29   30 1   
    30   29   37 1   
    31   30   31 1   
    32   30   33 1   
    33   30   38 1   
    34   31   32 2   
    35   31   41 1   
    36   33   34 1   
    37   33   39 1   
    38   33   40 1   
    39   34   35 1   
    40   34   36 1   
    41   41   42 1   
    42   41   45 1   
    43   42   43 1   
    44   42   46 1   
    45   42   47 1   
    46   43   44 2   
    47   43   48 1   
    48   48   49 1   
    49   48   56 1   
    50   49   50 1   
    51   49   52 1   
    52   49   57 1   
    53   50   51 2   
    54   50   62 1   
    55   52   53 1   
    56   52   58 1   
    57   52   59 1   
    58   53   54 1   
    59   53   55 2   
    60   54   60 1   
    61   54   61 1   
    62   62   63 1   
    63   62   66 1   
    64   63   64 1   
    65   63   67 1   
    66   63   68 1   
    67   64   65 2   
    68   64   69 1   
    69   69   70 1   
    70   69   76 1   
    71   70   71 1   
    72   70   73 1   
    73   70   77 1   
    74   71   72 2   
    75   71   83 1   
    76   73   74 1   
    77   73   75 1   
    78   73   78 1   
    79   74   80 1   
    80   74   81 1   
    81   74   82 1   
    82   75   79 1   
    83   83   84 1   
    84   83   91 1   
    85   84   85 1   
    86   84   87 1   
    87   84   92 1   
    88   85   86 2   
    89   85  102 1   
    90   87   88 1   
    91   87   89 1   
    92   87   93 1   
    93   88   90 1   
    94   88   94 1   
    95   88   95 1   
    96   89   96 1   
    97   89   97 1   
    98   89   98 1   
    99   90   99 1   
   100   90  100 1   
   101   90  101 1   
   102  102  103 1   
   103  102  110 1   
   104  103  104 1   
   105  103  106 1   
   106  103  111 1   
   107  104  105 2   
   108  104  114 1   
   109  106  107 1   
   110  106  112 1   
   111  106  113 1   
   112  107  108 1   
   113  107  109 1   
   114  114  115 1   
   115  114  125 1   
   116  115  116 1   
   117  115  118 1   
   118  115  126 1   
   119  116  117 2   
   120  116  134 1   
   121  118  119 1   
   122  118  127 1   
   123  118  128 1   
   124  119  120 ar  
   125  119  121 ar  
   126  120  122 ar  
   127  120  129 1   
   128  121  123 ar  
   129  121  130 1   
   130  122  124 ar  
   131  122  131 1   
   132  123  124 ar  
   133  123  132 1   
   134  124  133 1   
   135  134  135 1   
   136  134  140 1   
   137  135  136 1   
   138  135  138 1   
   139  135  141 1   
   140  136  137 2   
   141  136  148 1   
   142  138  139 1   
   143  138  142 1   
   144  138  143 1   
   145  139  140 1   
   146  139  144 1   
   147  139  145 1   
   148  140  146 1   
   149  140  147 1   
   150  148  149 1   
   151  148  157 1   
   152  149  150 1   
   153  149  152 1   
   154  149  158 1   
   155  150  151 2   
   156  150  163 1   
   157  152  153 1   
   158  152  159 1   
   159  152  160 1   
   160  153  154 1   
   161  153  161 1   
   162  153  162 1   
   163  154  155 1   
   164  154  156 1   
   165  163  164 1   
   166  163  168 1   
   167  164  165 1   
   168  164  166 1   
   169  164  167 1   
   170  170  171 1   
   171  170  172 1   
   172  173  174 1   
   173  173  175 1   
@<TRIPOS>SUBSTRUCTURE
     1 MOL         1 TEMP              0 ****  ****    0 ROOT
