@<TRIPOS>MOLECULE
MOL
  189   185     1     0     0
SMALL
resp


@<TRIPOS>ATOM
      1 C1          1.0130   -3.1740    6.2430 c3        1 MOL     -0.450714
      2 C2          1.2060   -2.8130    4.7550 c         1 MOL      0.685589
      3 O1          0.7210   -1.7740    4.1830 o         1 MOL     -0.593020
      4 H1          1.1900   -4.2400    6.3830 hc        1 MOL      0.120926
      5 H2          1.7180   -2.6050    6.8490 hc        1 MOL      0.120926
      6 H3         -0.0060   -2.9320    6.5470 hc        1 MOL      0.120926
      7 N1          2.0340   -3.6660    4.0750 n         1 MOL     -0.638378
      8 C3          2.3910   -3.4740    2.6750 c3        1 MOL      0.503439
      9 C4          2.2840   -4.7050    1.8260 c         1 MOL      0.250979
     10 O2          2.3800   -5.8510    2.3580 o         1 MOL     -0.562862
     11 C5          3.8550   -3.0150    2.7160 c3        1 MOL     -0.423955
     12 C6          4.4170   -2.6090    1.3050 c         1 MOL      0.850230
     13 O3          3.6250   -2.1240    0.4730 o         1 MOL     -0.716551
     14 O4          5.6690   -2.5920    1.0990 o         1 MOL     -0.716551
     15 H4          2.3920   -4.4260    4.6300 hn        1 MOL      0.322230
     16 H5          1.7560   -2.7130    2.2290 h1        1 MOL     -0.026956
     17 H6          4.4780   -3.7770    3.1900 hc        1 MOL      0.078485
     18 H7          3.8010   -2.1530    3.3770 hc        1 MOL      0.078485
     19 N2          2.0760   -4.4840    0.5590 n         1 MOL     -0.009377
     20 C7          2.1130   -5.5890   -0.4860 c3        1 MOL     -0.058067
     21 C8          2.8210   -5.1770   -1.8200 c         1 MOL      0.335688
     22 O5          2.9150   -5.9910   -2.7760 o         1 MOL     -0.546828
     23 C9          0.7310   -6.1580   -0.7600 c3        1 MOL      0.215898
     24 C10        -0.2150   -5.3750   -1.6100 c3        1 MOL     -0.017189
     25 C11         0.0190   -6.4600    0.6300 c3        1 MOL     -0.264038
     26 C12        -1.4400   -6.1490   -2.0630 c3        1 MOL     -0.335349
     27 H8          1.7670   -3.5820    0.2200 hn        1 MOL      0.068895
     28 H9          2.6440   -6.4620   -0.1040 h1        1 MOL      0.094927
     29 H10         0.8840   -7.1050   -1.2910 hc        1 MOL     -0.043196
     30 H11         0.2010   -4.8050   -2.4490 hc        1 MOL      0.071269
     31 H12        -0.5950   -4.5480   -1.0130 hc        1 MOL      0.071269
     32 H13        -0.3090   -5.5340    1.1180 hc        1 MOL      0.051219
     33 H14        -0.9130   -7.0130    0.4980 hc        1 MOL      0.051219
     34 H15         0.7160   -6.9410    1.3050 hc        1 MOL      0.051219
     35 H16        -1.1380   -6.7090   -2.9480 hc        1 MOL      0.077965
     36 H17        -1.8580   -6.7620   -1.2730 hc        1 MOL      0.077965
     37 H18        -2.1780   -5.4980   -2.5190 hc        1 MOL      0.077965
     38 N3          3.5210   -4.0340   -1.8420 n         1 MOL     -0.097321
     39 C13         4.1970   -3.5740   -3.1010 c3        1 MOL     -0.067427
     40 C14         5.5680   -2.9490   -2.9700 c         1 MOL      0.485527
     41 O6          6.3560   -3.1960   -3.8570 o         1 MOL     -0.573154
     42 C15         3.2930   -2.7030   -3.9340 c3        1 MOL     -0.085918
     43 C16         2.6810   -1.4030   -3.3490 c         1 MOL      0.659534
     44 O7          3.3860   -0.7290   -2.5180 o         1 MOL     -0.656510
     45 O8          1.5560   -1.0560   -3.6720 o         1 MOL     -0.656510
     46 H19         3.6890   -3.4690   -1.0190 hn        1 MOL      0.010902
     47 H20         4.4570   -4.4880   -3.6270 h1        1 MOL      0.097124
     48 H21         2.4090   -3.2980   -4.1370 hc        1 MOL      0.032258
     49 H22         3.7050   -2.5650   -4.9360 hc        1 MOL      0.032258
     50 N4          5.8380   -2.3270   -1.8580 n         1 MOL     -0.221688
     51 C17         7.1390   -1.6500   -1.6360 c3        1 MOL     -0.103699
     52 C18         7.2650   -0.1740   -2.1650 c         1 MOL      0.412360
     53 O9          8.3530    0.4150   -2.2800 o         1 MOL     -0.618076
     54 H23         5.2370   -2.3770   -1.0440 hn        1 MOL      0.231721
     55 H24         8.0010   -2.2520   -1.9280 h1        1 MOL      0.081219
     56 H25         7.3170   -1.5030   -0.5780 h1        1 MOL      0.081219
     57 N5          6.1360    0.4900   -2.3760 n         1 MOL     -0.076522
     58 C19         6.0390    1.8790   -2.9210 c3        1 MOL     -0.025651
     59 C20         6.2610    2.9040   -1.7500 c         1 MOL      0.410242
     60 O10         6.1050    4.1160   -1.9790 o         1 MOL     -0.558082
     61 C21         4.6960    2.0290   -3.6010 c3        1 MOL     -0.140530
     62 C22         3.5040    2.2420   -2.6890 c         1 MOL      0.744279
     63 O11         3.5590    1.8890   -1.4510 o         1 MOL     -0.706054
     64 O12         2.4470    2.7860   -3.0940 o         1 MOL     -0.706054
     65 H26         5.2800   -0.0410   -2.3130 hn        1 MOL      0.079781
     66 H27         6.7970    1.9900   -3.6880 h1        1 MOL      0.093074
     67 H28         4.5460    1.1910   -4.2840 hc        1 MOL      0.034942
     68 H29         4.7280    2.8950   -4.2590 hc        1 MOL      0.034942
     69 N6          6.4530    2.5070   -0.5250 n         1 MOL     -0.235779
     70 C23         6.7660    3.3850    0.5880 c3        1 MOL     -0.111458
     71 C24         5.6140    4.0150    1.2770 c         1 MOL      0.533108
     72 O13         5.9130    4.8790    2.0790 o         1 MOL     -0.583216
     73 H30         6.3280    1.5310   -0.2860 hn        1 MOL      0.209953
     74 H31         7.4030    4.2450    0.3680 h1        1 MOL      0.080740
     75 H32         7.4130    2.8470    1.2800 h1        1 MOL      0.080740
     76 N7          4.3800    3.6550    0.9400 n         1 MOL     -0.502756
     77 C25         3.1110    4.2460    1.4860 c3        1 MOL      0.090449
     78 C26         1.9340    3.2690    1.4700 c         1 MOL      0.250054
     79 O14         1.8900    2.3580    0.6060 o         1 MOL     -0.414150
     80 C27         2.6340    5.4970    0.7260 c3        1 MOL     -0.050414
     81 C28         3.6000    6.7060    0.8770 c3        1 MOL     -0.465849
     82 C29         2.8090    7.9830    0.4250 c         1 MOL      0.704247
     83 N8          2.8100    8.3810   -0.7750 n         1 MOL     -0.783728
     84 O15         2.1560    8.6730    1.1870 o         1 MOL     -0.601341
     85 H33         4.1860    3.0080    0.1910 hn        1 MOL      0.407177
     86 H34         3.2820    4.5570    2.5090 h1        1 MOL      0.057119
     87 H35         1.7000    5.7620    1.2260 hc        1 MOL      0.090995
     88 H36         2.5000    5.1320   -0.2960 hc        1 MOL      0.090995
     89 H37         4.5010    6.6490    0.2620 hc        1 MOL      0.166787
     90 H38         3.8490    6.8720    1.9230 hc        1 MOL      0.166787
     91 H39         3.3570    7.8590   -1.4530 hn        1 MOL      0.356583
     92 H40         2.2380    9.1360   -1.1160 hn        1 MOL      0.356583
     93 N9          1.0220    3.4280    2.4190 n         1 MOL     -0.264885
     94 C30        -0.0650    2.4540    2.6270 c3        1 MOL     -0.098309
     95 C31        -1.2230    2.9630    1.7980 c         1 MOL      0.509468
     96 O16        -1.6680    4.0850    2.0550 o         1 MOL     -0.602618
     97 C32        -0.4390    2.4390    4.1260 c3        1 MOL      0.119918
     98 C33        -1.5380    1.4370    4.4730 c3        1 MOL     -0.181359
     99 C34         0.7920    2.0860    4.9840 c3        1 MOL     -0.181359
    100 H41         1.1920    4.0380    3.2040 hn        1 MOL      0.263237
    101 H42         0.3040    1.4650    2.3350 h1        1 MOL      0.122941
    102 H43        -0.8110    3.3950    4.4990 hc        1 MOL      0.020729
    103 H44        -2.4960    1.6580    4.0020 hc        1 MOL      0.036027
    104 H45        -1.2640    0.4450    4.0910 hc        1 MOL      0.036027
    105 H46        -1.6280    1.4880    5.5570 hc        1 MOL      0.036027
    106 H47         0.5140    1.9050    6.0200 hc        1 MOL      0.036027
    107 H48         1.3970    1.2330    4.6640 hc        1 MOL      0.036027
    108 H49         1.4720    2.9320    4.9440 hc        1 MOL      0.036027
    109 N10        -1.7620    2.1910    0.8500 n         1 MOL     -0.087978
    110 C35        -3.0410    2.3320    0.1650 c3        1 MOL      0.200104
    111 C36        -4.2500    1.7930    0.9950 c         1 MOL      0.185119
    112 O17        -4.0940    1.0240    1.9450 o         1 MOL     -0.350335
    113 C37        -2.8440    1.5850   -1.2040 c3        1 MOL     -0.442652
    114 C38        -4.0750    1.5950   -2.1590 c         1 MOL      0.771445
    115 N11        -4.4800    2.8540   -2.3710 n         1 MOL     -0.919185
    116 O18        -4.7040    0.6290   -2.3930 o         1 MOL     -0.496192
    117 H50        -1.2800    1.3340    0.6270 hn        1 MOL      0.008739
    118 H51        -3.1860    3.3830   -0.0520 h1        1 MOL      0.001362
    119 H52        -2.6350    0.5230   -1.1340 hc        1 MOL      0.159579
    120 H53        -2.0170    2.0710   -1.7320 hc        1 MOL      0.159579
    121 H54        -3.9330    3.6350   -2.0730 hn        1 MOL      0.406152
    122 H55        -5.3680    2.8990   -2.8660 hn        1 MOL      0.406152
    123 N12        -5.3870    2.1140    0.4930 n         1 MOL     -0.130570
    124 C39        -6.6850    1.6020    1.0410 c3        1 MOL      0.031759
    125 C40        -6.8760    0.1050    1.0210 c         1 MOL      0.350396
    126 O19        -7.5670   -0.4180    1.8440 o         1 MOL     -0.532317
    127 C41        -7.9090    2.3340    0.4930 c3        1 MOL     -0.139297
    128 C42        -7.9790    2.6610   -1.0200 ca        1 MOL      0.050245
    129 C43        -8.4800    1.7370   -1.9260 ca        1 MOL     -0.178243
    130 C44        -7.4700    3.9350   -1.5100 ca        1 MOL     -0.178243
    131 C45        -8.5780    1.9970   -3.2990 ca        1 MOL     -0.315325
    132 C46        -7.4530    4.1970   -2.9110 ca        1 MOL     -0.315325
    133 C47        -7.9890    3.1750   -3.7810 ca        1 MOL      0.402063
    134 O20        -8.0080    3.4520   -5.1140 oh        1 MOL     -0.558799
    135 H56        -5.4990    2.8310   -0.2080 hn        1 MOL      0.140849
    136 H57        -6.7000    1.8300    2.1090 h1        1 MOL      0.074766
    137 H58        -8.1270    3.2500    1.0330 hc        1 MOL      0.063770
    138 H59        -8.7700    1.6890    0.6570 hc        1 MOL      0.063770
    139 H60        -8.9030    0.8190   -1.5420 ha        1 MOL      0.152164
    140 H61        -7.0630    4.6480   -0.8050 ha        1 MOL      0.152164
    141 H62        -9.1240    1.3300   -3.9370 ha        1 MOL      0.172671
    142 H63        -7.1460    5.1180   -3.3880 ha        1 MOL      0.172671
    143 H64        -8.6900    2.9190   -5.5320 ho        1 MOL      0.413707
    144 N13        -6.2550   -0.4960    0.0010 n         1 MOL     -0.074131
    145 C48        -6.2020   -1.9900   -0.1580 c3        1 MOL     -0.312078
    146 C49        -5.3220   -2.6420    0.9480 c         1 MOL      0.554764
    147 O21        -5.4190   -3.8420    1.1310 o         1 MOL     -0.546700
    148 C50        -5.9090   -2.3660   -1.6490 c3        1 MOL      0.260983
    149 C51        -7.0430   -1.9980   -2.5940 c3        1 MOL     -0.272755
    150 C52        -6.7190   -2.5040   -4.0530 c         1 MOL      0.683492
    151 O22        -7.6400   -2.9350   -4.8030 o         1 MOL     -0.722431
    152 O23        -5.5310   -2.3750   -4.5040 o         1 MOL     -0.722431
    153 H65        -5.6980    0.0990   -0.5950 hn        1 MOL      0.247458
    154 H66        -7.2120   -2.3730   -0.0210 h1        1 MOL      0.122160
    155 H67        -5.6800   -3.4230   -1.7640 hc        1 MOL     -0.009725
    156 H68        -4.9880   -1.8190   -1.8840 hc        1 MOL     -0.009725
    157 H69        -7.3040   -0.9470   -2.4980 hc        1 MOL      0.026173
    158 H70        -7.9670   -2.5230   -2.3600 hc        1 MOL      0.026173
    159 N14        -4.4350   -1.8750    1.6250 n         1 MOL     -0.315550
    160 C53        -3.3580   -2.2750    2.5440 c3        1 MOL     -0.025008
    161 C54        -3.5150   -1.9640    4.0700 c         1 MOL      0.467515
    162 O24        -3.1710   -2.7750    4.8990 o         1 MOL     -0.554597
    163 C55        -2.0850   -1.5930    2.0550 c3        1 MOL     -0.007926
    164 C56        -1.4210   -2.2860    0.8290 c3        1 MOL     -0.132285
    165 C57        -0.2050   -1.5160    0.2250 c         1 MOL      0.642093
    166 O25        -0.0720   -0.2830    0.4170 o         1 MOL     -0.652206
    167 O26         0.6600   -2.1360   -0.4180 o         1 MOL     -0.652206
    168 H71        -4.4970   -0.8830    1.4440 hn        1 MOL      0.081689
    169 H72        -3.2530   -3.3630    2.5520 h1        1 MOL      0.090501
    170 H73        -1.4090   -1.4920    2.9120 hc        1 MOL      0.058948
    171 H74        -2.1120   -0.5250    1.8300 hc        1 MOL      0.058948
    172 H75        -2.1610   -2.3440    0.0280 hc        1 MOL      0.055114
    173 H76        -1.0990   -3.3080    1.0320 hc        1 MOL      0.055114
    174 N15        -4.1860   -0.8770    4.3960 n         1 MOL     -0.177152
    175 C58        -4.5480   -0.4250    5.7560 c3        1 MOL     -0.080222
    176 H77        -5.5690   -0.0450    5.7510 h1        1 MOL      0.049475
    177 H78        -4.4760   -1.2630    6.4490 h1        1 MOL      0.049475
    178 H79        -3.8670    0.3660    6.0690 h1        1 MOL      0.049475
    179 H80        -4.4820   -0.2560    3.6420 hn        1 MOL      0.181198
    180 Ca1         2.3910   -0.0620   -0.1680 Ca        1 MOL      1.736592
    181 O27         4.8270    0.2700    0.7780 oh        1 MOL     -0.851865
    182 H81         5.4710   -0.4350    0.8740 ho        1 MOL      0.401699
    183 H82         4.9890    0.8500    1.5140 ho        1 MOL      0.401699
    184 O28         2.3610   -0.1220    2.7950 oh        1 MOL     -0.851865
    185 H83         1.4840   -0.0290    3.1770 ho        1 MOL      0.401699
    186 H84         2.8950   -0.4710    3.5070 ho        1 MOL      0.401699
    187 O29         0.7090    1.1370   -2.0750 oh        1 MOL     -0.851865
    188 H85         1.0130    0.4010   -2.6050 ho        1 MOL      0.401699
    189 H86         1.0740    1.9140   -2.4970 ho        1 MOL      0.401699
@<TRIPOS>BOND
     1    1    2 1   
     2    1    4 1   
     3    1    5 1   
     4    1    6 1   
     5    2    3 2   
     6    2    7 1   
     7    7    8 1   
     8    7   15 1   
     9    8    9 1   
    10    8   11 1   
    11    8   16 1   
    12    9   10 2   
    13    9   19 1   
    14   11   12 1   
    15   11   17 1   
    16   11   18 1   
    17   12   13 1   
    18   12   14 1   
    19   19   20 1   
    20   19   27 1   
    21   20   21 1   
    22   20   23 1   
    23   20   28 1   
    24   21   22 2   
    25   21   38 1   
    26   23   24 1   
    27   23   25 1   
    28   23   29 1   
    29   24   26 1   
    30   24   30 1   
    31   24   31 1   
    32   25   32 1   
    33   25   33 1   
    34   25   34 1   
    35   26   35 1   
    36   26   36 1   
    37   26   37 1   
    38   38   39 1   
    39   38   46 1   
    40   39   40 1   
    41   39   42 1   
    42   39   47 1   
    43   40   41 2   
    44   40   50 1   
    45   42   43 1   
    46   42   48 1   
    47   42   49 1   
    48   43   44 1   
    49   43   45 1   
    50   50   51 1   
    51   50   54 1   
    52   51   52 1   
    53   51   55 1   
    54   51   56 1   
    55   52   53 2   
    56   52   57 1   
    57   57   58 1   
    58   57   65 1   
    59   58   59 1   
    60   58   61 1   
    61   58   66 1   
    62   59   60 2   
    63   59   69 1   
    64   61   62 1   
    65   61   67 1   
    66   61   68 1   
    67   62   63 1   
    68   62   64 1   
    69   69   70 1   
    70   69   73 1   
    71   70   71 1   
    72   70   74 1   
    73   70   75 1   
    74   71   72 2   
    75   71   76 1   
    76   76   77 1   
    77   76   85 1   
    78   77   78 1   
    79   77   80 1   
    80   77   86 1   
    81   78   79 2   
    82   78   93 1   
    83   80   81 1   
    84   80   87 1   
    85   80   88 1   
    86   81   82 1   
    87   81   89 1   
    88   81   90 1   
    89   82   83 1   
    90   82   84 2   
    91   83   91 1   
    92   83   92 1   
    93   93   94 1   
    94   93  100 1   
    95   94   95 1   
    96   94   97 1   
    97   94  101 1   
    98   95   96 2   
    99   95  109 1   
   100   97   98 1   
   101   97   99 1   
   102   97  102 1   
   103   98  103 1   
   104   98  104 1   
   105   98  105 1   
   106   99  106 1   
   107   99  107 1   
   108   99  108 1   
   109  109  110 1   
   110  109  117 1   
   111  110  111 1   
   112  110  113 1   
   113  110  118 1   
   114  111  112 2   
   115  111  123 1   
   116  113  114 1   
   117  113  119 1   
   118  113  120 1   
   119  114  115 1   
   120  114  116 2   
   121  115  121 1   
   122  115  122 1   
   123  123  124 1   
   124  123  135 1   
   125  124  125 1   
   126  124  127 1   
   127  124  136 1   
   128  125  126 2   
   129  125  144 1   
   130  127  128 1   
   131  127  137 1   
   132  127  138 1   
   133  128  129 ar  
   134  128  130 ar  
   135  129  131 ar  
   136  129  139 1   
   137  130  132 ar  
   138  130  140 1   
   139  131  133 ar  
   140  131  141 1   
   141  132  133 ar  
   142  132  142 1   
   143  133  134 1   
   144  134  143 1   
   145  144  145 1   
   146  144  153 1   
   147  145  146 1   
   148  145  148 1   
   149  145  154 1   
   150  146  147 2   
   151  146  159 1   
   152  148  149 1   
   153  148  155 1   
   154  148  156 1   
   155  149  150 1   
   156  149  157 1   
   157  149  158 1   
   158  150  151 1   
   159  150  152 1   
   160  159  160 1   
   161  159  168 1   
   162  160  161 1   
   163  160  163 1   
   164  160  169 1   
   165  161  162 2   
   166  161  174 1   
   167  163  164 1   
   168  163  170 1   
   169  163  171 1   
   170  164  165 1   
   171  164  172 1   
   172  164  173 1   
   173  165  166 1   
   174  165  167 1   
   175  174  175 1   
   176  174  179 1   
   177  175  176 1   
   178  175  177 1   
   179  175  178 1   
   180  181  182 1   
   181  181  183 1   
   182  184  185 1   
   183  184  186 1   
   184  187  188 1   
   185  187  189 1   
@<TRIPOS>SUBSTRUCTURE
     1 MOL         1 TEMP              0 ****  ****    0 ROOT
