@<TRIPOS>MOLECULE
MOL
  176   174     1     0     0
SMALL
resp


@<TRIPOS>ATOM
      1 C1          1.2480   -4.7160    5.8980 c3        1 MOL     -0.380730
      2 C2          1.0110   -4.4720    4.4140 c         1 MOL      0.751243
      3 O1          0.0620   -4.9460    3.8110 o         1 MOL     -0.603154
      4 H1          0.7900   -3.9120    6.4750 hc        1 MOL      0.099488
      5 H2          0.8030   -5.6680    6.1870 hc        1 MOL      0.099488
      6 H3          2.3200   -4.7400    6.0960 hc        1 MOL      0.099488
      7 N1          1.8480   -3.6190    3.8260 n         1 MOL     -0.608112
      8 C3          1.7000   -3.0510    2.4870 c3        1 MOL      0.206155
      9 C4          1.6300   -4.1850    1.4500 c         1 MOL      0.269067
     10 O2          2.3080   -5.1870    1.5800 o         1 MOL     -0.510417
     11 C5          2.8700   -2.1690    2.1640 c3        1 MOL     -0.300421
     12 C6          2.7160   -1.3610    0.8890 c         1 MOL      0.959477
     13 O3          2.6740   -1.9300   -0.2090 o         1 MOL     -0.775871
     14 O4          2.5760   -0.0820    0.8530 o         1 MOL     -0.775871
     15 H4          2.5530   -3.2620    4.4480 hn        1 MOL      0.322715
     16 H5          0.7420   -2.5290    2.4300 h1        1 MOL      0.054532
     17 H6          3.7400   -2.8170    2.0440 hc        1 MOL      0.084817
     18 H7          3.1800   -1.5250    2.9810 hc        1 MOL      0.084817
     19 N2          0.7430   -4.0940    0.4400 n         1 MOL     -0.034216
     20 C7          0.5100   -5.2500   -0.4810 c3        1 MOL     -0.013023
     21 C8          1.5420   -5.3080   -1.5940 c         1 MOL      0.703102
     22 O5          1.4000   -6.2220   -2.4450 o         1 MOL     -0.603496
     23 C9         -0.9770   -5.2610   -0.9680 c3        1 MOL     -0.175024
     24 C10        -2.0360   -5.3280    0.1760 c3        1 MOL      0.271119
     25 C11        -2.5520   -6.7280    0.5040 c3        1 MOL     -0.232402
     26 C12        -1.4690   -7.5030    1.2090 c3        1 MOL      0.172171
     27 N3         -1.8740   -8.8510    1.5560 n4        1 MOL     -0.489370
     28 H8          0.2070   -3.2460    0.3210 hn        1 MOL      0.172538
     29 H9          0.6230   -6.2330   -0.0250 h1        1 MOL     -0.023003
     30 H10        -1.1490   -6.0370   -1.7160 hc        1 MOL      0.048970
     31 H11        -1.1590   -4.3110   -1.4900 hc        1 MOL      0.048970
     32 H12        -2.9370   -4.7690   -0.0560 hc        1 MOL     -0.040954
     33 H13        -1.5960   -4.7750    1.0020 hc        1 MOL     -0.040954
     34 H14        -2.8610   -7.2740   -0.3940 hc        1 MOL      0.061877
     35 H15        -3.4060   -6.5930    1.1600 hc        1 MOL      0.061877
     36 H16        -1.1320   -6.8960    2.0490 hx        1 MOL      0.087304
     37 H17        -0.6270   -7.6090    0.5270 hx        1 MOL      0.087304
     38 H18        -1.0780   -9.4050    1.8280 hn        1 MOL      0.351765
     39 H19        -2.5910   -8.8170    2.2700 hn        1 MOL      0.351765
     40 H20        -2.3740   -9.2550    0.7670 hn        1 MOL      0.351765
     41 N4          2.5810   -4.4930   -1.6150 n         1 MOL     -0.518365
     42 C13         3.5890   -4.3480   -2.6630 c3        1 MOL      0.015607
     43 C14         4.9600   -3.8400   -2.2110 c         1 MOL      0.468175
     44 O6          5.8820   -3.7860   -3.0200 o         1 MOL     -0.532498
     45 C15         3.1160   -3.4530   -3.8120 c3        1 MOL     -0.117358
     46 C16         2.5040   -2.1560   -3.3320 c         1 MOL      0.647664
     47 O7          1.3220   -2.2190   -2.9730 o         1 MOL     -0.696443
     48 O8          3.2730   -1.1810   -3.1080 o         1 MOL     -0.696443
     49 H21         2.4820   -3.6830   -1.0280 hn        1 MOL      0.249477
     50 H22         3.7070   -5.3300   -3.1200 h1        1 MOL      0.111946
     51 H23         2.3970   -4.0040   -4.4220 hc        1 MOL      0.046693
     52 H24         3.9090   -3.2560   -4.5410 hc        1 MOL      0.046693
     53 N5          5.0900   -3.3370   -0.9760 n         1 MOL     -0.284982
     54 C17         6.3340   -2.8710   -0.3210 c3        1 MOL     -0.121656
     55 C18         6.7470   -1.4450   -0.5080 c         1 MOL      0.486668
     56 O9          7.7980   -1.1300    0.0100 o         1 MOL     -0.546780
     57 H25         4.2380   -3.1560   -0.4740 hn        1 MOL      0.201180
     58 H26         7.1650   -3.5470   -0.5160 h1        1 MOL      0.102643
     59 H27         6.1870   -2.8840    0.7560 h1        1 MOL      0.102643
     60 N6          5.9980   -0.6220   -1.2110 n         1 MOL     -0.184971
     61 C19         6.3170    0.7750   -1.3680 c3        1 MOL      0.007983
     62 C20         6.1300    1.6080   -0.1000 c         1 MOL      0.329677
     63 O10         6.7100    2.6370    0.1340 o         1 MOL     -0.453215
     64 C21         5.7010    1.3600   -2.6200 c3        1 MOL     -0.162672
     65 C22         4.3830    2.1270   -2.3880 c         1 MOL      0.579284
     66 N7          4.3100    3.2990   -2.9510 n         1 MOL     -0.650484
     67 O11         3.3330    1.7130   -1.8210 o         1 MOL     -0.589755
     68 H28         5.1120   -0.8680   -1.6210 hn        1 MOL      0.210069
     69 H29         7.3910    0.8520   -1.5650 h1        1 MOL      0.091220
     70 H30         5.5060    0.5910   -3.3640 hc        1 MOL      0.085039
     71 H31         6.3850    2.0840   -3.0560 hc        1 MOL      0.085039
     72 H32         5.0970    3.6950   -3.4250 hn        1 MOL      0.341530
     73 H33         3.4090    3.7670   -2.9390 hn        1 MOL      0.341530
     74 N8          5.2500    1.1310    0.8000 n         1 MOL     -0.069586
     75 C23         4.9680    1.7020    2.1050 c3        1 MOL     -0.221397
     76 C24         3.9840    2.8180    2.1080 c         1 MOL      0.526156
     77 O12         3.9890    3.4830    3.1730 o         1 MOL     -0.586769
     78 H34         4.6750    0.3620    0.4740 hn        1 MOL      0.067267
     79 H35         5.9190    1.9570    2.5730 h1        1 MOL      0.120940
     80 H36         4.6020    0.9220    2.7820 h1        1 MOL      0.120940
     81 N9          3.1280    2.9720    1.1050 n         1 MOL      0.139140
     82 C25         2.0660    3.9570    1.0160 c3        1 MOL      0.112965
     83 C26         0.8330    3.0940    0.6850 c         1 MOL      0.292235
     84 O13         0.7790    2.4550   -0.3450 o         1 MOL     -0.429068
     85 C27         2.3510    4.7810   -0.1690 c3        1 MOL      0.119429
     86 C28         3.3710    5.9050    0.1160 ca        1 MOL     -0.130161
     87 C29         4.7420    5.6340    0.0790 ca        1 MOL     -0.109389
     88 C30         2.8510    7.1740    0.4410 ca        1 MOL     -0.109389
     89 C31         5.5850    6.7540    0.3970 ca        1 MOL     -0.216191
     90 C32         3.6870    8.1900    0.8670 ca        1 MOL     -0.216191
     91 C33         5.0810    7.9730    0.8170 ca        1 MOL      0.302287
     92 O14         5.9450    8.9640    1.2170 oh        1 MOL     -0.491900
     93 H37         3.0340    2.1440    0.5460 hn        1 MOL     -0.205152
     94 H38         1.9130    4.6010    1.8840 h1        1 MOL      0.018014
     95 H39         1.4330    5.2350   -0.5410 hc        1 MOL     -0.012774
     96 H40         2.6800    4.1160   -0.9570 hc        1 MOL     -0.012774
     97 H41         5.1350    4.6580   -0.1440 ha        1 MOL      0.101884
     98 H42         1.7960    7.3910    0.4680 ha        1 MOL      0.101884
     99 H43         6.6530    6.6420    0.3380 ha        1 MOL      0.132222
    100 H44         3.2770    9.1590    1.1050 ha        1 MOL      0.132222
    101 H45         5.5660    9.8300    1.3890 ho        1 MOL      0.361488
    102 N10        -0.2150    3.3280    1.4820 n         1 MOL     -0.371777
    103 C34        -1.4460    2.5200    1.5240 c3        1 MOL     -0.030718
    104 C35        -2.6390    3.3740    1.2280 c         1 MOL      0.474526
    105 O15        -3.0060    4.1880    2.0580 o         1 MOL     -0.526458
    106 C36        -1.5630    1.5730    2.7910 c3        1 MOL      0.141390
    107 C37        -0.1530    0.9620    3.1430 c3        1 MOL      0.331036
    108 C38        -2.6120    0.4590    2.4530 c3        1 MOL     -0.175900
    109 C39        -0.0860   -0.0470    4.3150 c3        1 MOL     -0.265022
    110 H46        -0.0570    4.0870    2.1240 hn        1 MOL      0.293821
    111 H47        -1.4160    1.7900    0.7150 h1        1 MOL      0.061438
    112 H48        -1.8420    2.1010    3.7010 hc        1 MOL     -0.025171
    113 H49         0.4660    1.8280    3.3990 hc        1 MOL     -0.093540
    114 H50         0.2700    0.4330    2.2890 hc        1 MOL     -0.093540
    115 H51        -3.6190    0.7670    2.1820 hc        1 MOL      0.028546
    116 H52        -2.2000   -0.1460    1.6450 hc        1 MOL      0.028546
    117 H53        -2.6560   -0.1850    3.3450 hc        1 MOL      0.028546
    118 H54        -0.6680    0.4330    5.0980 hc        1 MOL      0.054845
    119 H55        -0.6590   -0.9460    4.0810 hc        1 MOL      0.054845
    120 H56         0.9250   -0.2510    4.6850 hc        1 MOL      0.054845
    121 N11        -3.4010    3.2100    0.1250 n         1 MOL     -0.296692
    122 C40        -4.6820    3.8450   -0.2460 c3        1 MOL      0.009287
    123 C41        -5.8930    3.1160    0.3610 c         1 MOL      0.526223
    124 O16        -5.7880    1.9690    0.7790 o         1 MOL     -0.387168
    125 C42        -4.6760    4.1210   -1.7340 c3        1 MOL     -0.035780
    126 O17        -4.9920    2.9420   -2.4830 oh        1 MOL     -0.531808
    127 H57        -2.9400    2.6170   -0.5520 hn        1 MOL      0.225391
    128 H58        -4.7180    4.7950    0.2920 h1        1 MOL      0.056381
    129 H59        -3.7170    4.5180   -2.0710 h1        1 MOL      0.094334
    130 H60        -5.4560    4.8710   -1.8750 h1        1 MOL      0.094334
    131 H61        -4.1970    2.3980   -2.5590 ho        1 MOL      0.405116
    132 N12        -7.1080    3.6810    0.3350 n         1 MOL     -0.492787
    133 C43        -8.4270    3.0970    0.5420 c3        1 MOL      0.161415
    134 C44        -8.6240    1.7170   -0.2820 c         1 MOL      0.469305
    135 O18        -9.0360    0.7430    0.2960 o         1 MOL     -0.482133
    136 C45        -9.3970    4.1580    0.2270 c3        1 MOL     -0.300869
    137 H62        -7.1250    4.6330    0.0020 hn        1 MOL      0.289670
    138 H63        -8.6600    2.8690    1.5800 h1        1 MOL      0.082967
    139 H64        -9.3540    4.5010   -0.8120 hc        1 MOL      0.088218
    140 H65       -10.3730    3.7630    0.4940 hc        1 MOL      0.088218
    141 H66        -9.2250    4.9590    0.9550 hc        1 MOL      0.088218
    142 N13        -8.2460    1.7430   -1.5820 n         1 MOL     -0.447176
    143 C46        -8.2610    0.5980   -2.5330 c3        1 MOL      0.111685
    144 C47        -7.4270   -0.5300   -2.1000 c         1 MOL      0.515276
    145 O19        -7.7880   -1.6480   -2.2570 o         1 MOL     -0.560781
    146 C48        -7.9210    1.0840   -3.9800 c3        1 MOL     -0.357811
    147 H67        -7.8850    2.6180   -1.9320 hn        1 MOL      0.326950
    148 H68        -9.2180    0.0790   -2.5530 h1        1 MOL      0.085320
    149 H69        -7.6440    0.2170   -4.5900 hc        1 MOL      0.105520
    150 H70        -8.7960    1.6320   -4.3160 hc        1 MOL      0.105520
    151 H71        -7.0160    1.6860   -3.8430 hc        1 MOL      0.105520
    152 N14        -6.3350   -0.2670   -1.4410 n         1 MOL     -0.203318
    153 C49        -5.3210   -1.1940   -0.8080 c3        1 MOL     -0.011060
    154 C50        -5.6200   -1.5480    0.6710 c         1 MOL      0.471783
    155 O20        -5.5310   -2.7200    1.0540 o         1 MOL     -0.579644
    156 C51        -3.8970   -0.6590   -0.9800 c3        1 MOL      0.011265
    157 C52        -2.8040   -1.6740   -0.7820 c3        1 MOL     -0.043597
    158 C53        -1.3970   -1.0060   -0.8450 c         1 MOL      0.644565
    159 O21        -0.4950   -1.5120   -0.1470 o         1 MOL     -0.713803
    160 O22        -1.1700    0.0180   -1.5130 o         1 MOL     -0.713803
    161 H72        -6.2590    0.7270   -1.2680 hn        1 MOL      0.031883
    162 H73        -5.5380   -2.1390   -1.2980 h1        1 MOL      0.083998
    163 H74        -3.8320    0.1920   -0.3020 hc        1 MOL     -0.004751
    164 H75        -3.7990   -0.2550   -1.9930 hc        1 MOL     -0.004751
    165 H76        -3.0150   -2.4570   -1.5190 hc        1 MOL      0.031861
    166 H77        -2.9110   -2.1170    0.2070 hc        1 MOL      0.031861
    167 N15        -6.0190   -0.6420    1.5100 n         1 MOL      0.003148
    168 C54        -6.3810   -0.8130    2.8920 c3        1 MOL     -0.262258
    169 H78        -7.1850   -1.5440    2.9680 h1        1 MOL      0.096474
    170 H79        -5.5160   -1.1650    3.4540 h1        1 MOL      0.096474
    171 H80        -6.7170    0.1400    3.3010 h1        1 MOL      0.096474
    172 H81        -6.3250    0.2330    1.0890 hn        1 MOL      0.074251
    173 Ca1         1.4220   -0.0090   -1.4610 Ca        1 MOL      1.758913
    174 O23         0.7200    1.2600   -3.7170 oh        1 MOL     -0.919965
    175 H82         0.5790    0.7960   -4.5420 ho        1 MOL      0.441807
    176 H83         0.5530    2.1850   -3.9280 ho        1 MOL      0.441807
@<TRIPOS>BOND
     1    1    2 1   
     2    1    4 1   
     3    1    5 1   
     4    1    6 1   
     5    2    3 2   
     6    2    7 1   
     7    7    8 1   
     8    7   15 1   
     9    8    9 1   
    10    8   11 1   
    11    8   16 1   
    12    9   10 2   
    13    9   19 1   
    14   11   12 1   
    15   11   17 1   
    16   11   18 1   
    17   12   13 1   
    18   12   14 1   
    19   19   20 1   
    20   19   28 1   
    21   20   21 1   
    22   20   23 1   
    23   20   29 1   
    24   21   22 2   
    25   21   41 1   
    26   23   24 1   
    27   23   30 1   
    28   23   31 1   
    29   24   25 1   
    30   24   32 1   
    31   24   33 1   
    32   25   26 1   
    33   25   34 1   
    34   25   35 1   
    35   26   27 1   
    36   26   36 1   
    37   26   37 1   
    38   27   38 1   
    39   27   39 1   
    40   27   40 1   
    41   41   42 1   
    42   41   49 1   
    43   42   43 1   
    44   42   45 1   
    45   42   50 1   
    46   43   44 2   
    47   43   53 1   
    48   45   46 1   
    49   45   51 1   
    50   45   52 1   
    51   46   47 1   
    52   46   48 1   
    53   53   54 1   
    54   53   57 1   
    55   54   55 1   
    56   54   58 1   
    57   54   59 1   
    58   55   56 2   
    59   55   60 1   
    60   60   61 1   
    61   60   68 1   
    62   61   62 1   
    63   61   64 1   
    64   61   69 1   
    65   62   63 2   
    66   62   74 1   
    67   64   65 1   
    68   64   70 1   
    69   64   71 1   
    70   65   66 1   
    71   65   67 2   
    72   66   72 1   
    73   66   73 1   
    74   74   75 1   
    75   74   78 1   
    76   75   76 1   
    77   75   79 1   
    78   75   80 1   
    79   76   77 2   
    80   76   81 1   
    81   81   82 1   
    82   81   93 1   
    83   82   83 1   
    84   82   85 1   
    85   82   94 1   
    86   83   84 2   
    87   83  102 1   
    88   85   86 1   
    89   85   95 1   
    90   85   96 1   
    91   86   87 ar  
    92   86   88 ar  
    93   87   89 ar  
    94   87   97 1   
    95   88   90 ar  
    96   88   98 1   
    97   89   91 ar  
    98   89   99 1   
    99   90   91 ar  
   100   90  100 1   
   101   91   92 1   
   102   92  101 1   
   103  102  103 1   
   104  102  110 1   
   105  103  104 1   
   106  103  106 1   
   107  103  111 1   
   108  104  105 2   
   109  104  121 1   
   110  106  107 1   
   111  106  108 1   
   112  106  112 1   
   113  107  109 1   
   114  107  113 1   
   115  107  114 1   
   116  108  115 1   
   117  108  116 1   
   118  108  117 1   
   119  109  118 1   
   120  109  119 1   
   121  109  120 1   
   122  121  122 1   
   123  121  127 1   
   124  122  123 1   
   125  122  125 1   
   126  122  128 1   
   127  123  124 2   
   128  123  132 1   
   129  125  126 1   
   130  125  129 1   
   131  125  130 1   
   132  126  131 1   
   133  132  133 1   
   134  132  137 1   
   135  133  134 1   
   136  133  136 1   
   137  133  138 1   
   138  134  135 2   
   139  134  142 1   
   140  136  139 1   
   141  136  140 1   
   142  136  141 1   
   143  142  143 1   
   144  142  147 1   
   145  143  144 1   
   146  143  146 1   
   147  143  148 1   
   148  144  145 2   
   149  144  152 1   
   150  146  149 1   
   151  146  150 1   
   152  146  151 1   
   153  152  153 1   
   154  152  161 1   
   155  153  154 1   
   156  153  156 1   
   157  153  162 1   
   158  154  155 2   
   159  154  167 1   
   160  156  157 1   
   161  156  163 1   
   162  156  164 1   
   163  157  158 1   
   164  157  165 1   
   165  157  166 1   
   166  158  159 1   
   167  158  160 1   
   168  167  168 1   
   169  167  172 1   
   170  168  169 1   
   171  168  170 1   
   172  168  171 1   
   173  174  175 1   
   174  174  176 1   
@<TRIPOS>SUBSTRUCTURE
     1 MOL         1 TEMP              0 ****  ****    0 ROOT
