@<TRIPOS>MOLECULE
MOL
  189   185     1     0     0
SMALL
resp


@<TRIPOS>ATOM
      1 C1          0.6550   -2.0570    6.5400 c3        1 MOL     -0.462434
      2 C2          0.8990   -2.0530    5.0050 c         1 MOL      0.760092
      3 O1          0.7910   -0.9720    4.3940 o         1 MOL     -0.628016
      4 H1          1.5190   -2.4920    7.0440 hc        1 MOL      0.120917
      5 H2          0.5090   -1.0340    6.8880 hc        1 MOL      0.120917
      6 H3         -0.2320   -2.6480    6.7660 hc        1 MOL      0.120917
      7 N1          1.2180   -3.2400    4.4310 n         1 MOL     -0.663105
      8 C3          1.8130   -3.2960    3.0850 c3        1 MOL      0.278171
      9 C4          1.3430   -4.5440    2.1990 c         1 MOL      0.384093
     10 O2          1.1830   -5.5980    2.8070 o         1 MOL     -0.569556
     11 C5          3.3350   -3.2210    3.1930 c3        1 MOL     -0.284380
     12 C6          3.9480   -2.7890    1.8430 c         1 MOL      0.728545
     13 O3          3.2350   -2.5560    0.8850 o         1 MOL     -0.694883
     14 O4          5.1820   -2.5880    1.8300 o         1 MOL     -0.694883
     15 H4          1.2890   -4.0410    5.0330 hn        1 MOL      0.334439
     16 H5          1.4870   -2.4200    2.5230 h1        1 MOL      0.136382
     17 H6          3.7600   -4.1940    3.4320 hc        1 MOL      0.048733
     18 H7          3.6260   -2.4910    3.9530 hc        1 MOL      0.048733
     19 N2          1.1440   -4.4050    0.8640 n         1 MOL     -0.188082
     20 C7          1.0370   -5.5870   -0.0630 c3        1 MOL     -0.234904
     21 C8          1.9950   -5.5530   -1.2930 c         1 MOL      0.513937
     22 O5          2.1680   -6.6070   -1.9320 o         1 MOL     -0.573171
     23 C9         -0.4070   -5.7570   -0.5240 c3        1 MOL      0.269109
     24 C10        -0.9720   -4.7220   -1.4630 c3        1 MOL      0.138061
     25 C11        -1.3010   -6.0340    0.7850 c3        1 MOL     -0.369459
     26 C12        -2.2780   -5.2470   -2.0740 c3        1 MOL     -0.400742
     27 H8          1.1350   -3.4490    0.5400 hn        1 MOL      0.373077
     28 H9          1.2970   -6.4980    0.4790 h1        1 MOL      0.133826
     29 H10        -0.3920   -6.7010   -1.0720 hc        1 MOL     -0.048534
     30 H11        -0.2650   -4.4620   -2.2490 hc        1 MOL      0.020706
     31 H12        -1.0470   -3.7800   -0.9310 hc        1 MOL      0.020706
     32 H13        -2.3180   -6.3460    0.5670 hc        1 MOL      0.074333
     33 H14        -0.7930   -6.7790    1.3900 hc        1 MOL      0.074333
     34 H15        -1.5230   -5.1210    1.3290 hc        1 MOL      0.074333
     35 H16        -2.5120   -4.5900   -2.9160 hc        1 MOL      0.091123
     36 H17        -2.1380   -6.2500   -2.4860 hc        1 MOL      0.091123
     37 H18        -3.0340   -5.2800   -1.2870 hc        1 MOL      0.091123
     38 N3          2.6660   -4.4220   -1.6400 n         1 MOL     -0.382879
     39 C13         3.4340   -4.2840   -2.8670 c3        1 MOL      0.071872
     40 C14         4.7660   -3.5800   -2.8190 c         1 MOL      0.399852
     41 O6          5.4640   -3.5960   -3.8010 o         1 MOL     -0.533383
     42 C15         2.5200   -3.4080   -3.8010 c3        1 MOL     -0.293517
     43 C16         2.1790   -1.9710   -3.2170 c         1 MOL      0.692116
     44 O7          2.7550   -1.5640   -2.1630 o         1 MOL     -0.655345
     45 O8          1.3370   -1.2240   -3.8190 o         1 MOL     -0.655345
     46 H19         2.5300   -3.5940   -1.0780 hn        1 MOL      0.119458
     47 H20         3.6020   -5.2770   -3.2880 h1        1 MOL      0.105560
     48 H21         1.6400   -3.9530   -4.1430 hc        1 MOL      0.087455
     49 H22         3.0760   -3.2300   -4.7200 hc        1 MOL      0.087455
     50 N4          5.2430   -3.2210   -1.6100 n         1 MOL     -0.155990
     51 C17         6.6150   -2.7840   -1.3710 c3        1 MOL     -0.321733
     52 C18         6.8730   -1.2770   -1.9290 c         1 MOL      0.575241
     53 O9          8.0200   -0.8880   -2.0780 o         1 MOL     -0.608270
     54 H23         4.5980   -3.1890   -0.8270 hn        1 MOL      0.184253
     55 H24         7.2840   -3.5020   -1.8480 h1        1 MOL      0.139154
     56 H25         6.8060   -2.6700   -0.3030 h1        1 MOL      0.139154
     57 N5          5.9150   -0.4160   -2.3200 n         1 MOL     -0.266071
     58 C19         6.2000    0.8500   -2.9740 c3        1 MOL      0.000256
     59 C20         6.9220    1.9180   -2.1440 c         1 MOL      0.485662
     60 O10         7.7210    2.6920   -2.6630 o         1 MOL     -0.602429
     61 C21         4.9250    1.5290   -3.4840 c3        1 MOL     -0.322061
     62 C22         3.8260    1.8710   -2.5170 c         1 MOL      0.762842
     63 O11         3.8080    1.2370   -1.5040 o         1 MOL     -0.737444
     64 O12         2.9330    2.7270   -2.7840 o         1 MOL     -0.737444
     65 H26         4.9560   -0.6590   -2.1560 hn        1 MOL      0.283163
     66 H27         6.6840    0.6660   -3.9350 h1        1 MOL      0.083582
     67 H28         4.4950    0.7940   -4.1650 hc        1 MOL      0.088122
     68 H29         5.1100    2.4520   -4.0230 hc        1 MOL      0.088122
     69 N6          6.6350    2.0080   -0.8600 n         1 MOL     -0.129994
     70 C23         7.0990    3.0610    0.0790 c3        1 MOL     -0.137779
     71 C24         5.9440    3.7040    0.8720 c         1 MOL      0.574070
     72 O13         6.3250    4.5640    1.6500 o         1 MOL     -0.588025
     73 H30         5.9940    1.2900   -0.5650 hn        1 MOL      0.103597
     74 H31         7.7310    3.8950   -0.2270 h1        1 MOL      0.092555
     75 H32         7.6870    2.5170    0.8260 h1        1 MOL      0.092555
     76 N7          4.6160    3.4300    0.6830 n         1 MOL     -0.511076
     77 C25         3.4620    4.2160    1.2550 c3        1 MOL      0.076330
     78 C26         2.3330    3.2710    1.6270 c         1 MOL      0.645281
     79 O14         2.1830    2.2560    0.8960 o         1 MOL     -0.609038
     80 C27         3.0490    5.3180    0.3430 c3        1 MOL      0.096863
     81 C28         4.1060    6.4080    0.1350 c3        1 MOL     -0.433344
     82 C29         3.5280    7.6850   -0.4770 c         1 MOL      0.692607
     83 N8          3.1300    7.6380   -1.7020 n         1 MOL     -0.826222
     84 O15         3.1780    8.6990    0.1180 o         1 MOL     -0.601919
     85 H33         4.4040    2.7230   -0.0070 hn        1 MOL      0.314117
     86 H34         3.8960    4.7140    2.1230 h1        1 MOL      0.046006
     87 H35         2.1410    5.8120    0.6950 hc        1 MOL      0.041360
     88 H36         2.8970    4.7590   -0.5840 hc        1 MOL      0.041360
     89 H37         4.7850    6.0550   -0.6480 hc        1 MOL      0.138303
     90 H38         4.6670    6.5880    1.0500 hc        1 MOL      0.138303
     91 H39         3.3770    6.8210   -2.2260 hn        1 MOL      0.382405
     92 H40         2.4940    8.3470   -2.0210 hn        1 MOL      0.382405
     93 N9          1.5070    3.6190    2.6020 n         1 MOL     -0.754931
     94 C30         0.2160    2.8890    2.8040 c3        1 MOL      0.560467
     95 C31        -0.8490    3.3390    1.8410 c         1 MOL      0.213088
     96 O16        -1.0130    4.5600    1.5690 o         1 MOL     -0.582107
     97 C32        -0.3630    3.1620    4.2180 c3        1 MOL      0.158151
     98 C33        -1.3680    2.0240    4.5630 c3        1 MOL     -0.421762
     99 C34         0.6910    3.1610    5.3390 c3        1 MOL     -0.421762
    100 H41         1.6340    4.5440    2.9820 hn        1 MOL      0.337883
    101 H42         0.3270    1.8090    2.7480 h1        1 MOL     -0.017594
    102 H43        -0.8240    4.1500    4.2560 hc        1 MOL     -0.010756
    103 H44        -1.7020    2.1750    5.5930 hc        1 MOL      0.104934
    104 H45        -2.2400    2.0440    3.8980 hc        1 MOL      0.104934
    105 H46        -0.9910    1.0050    4.6070 hc        1 MOL      0.104934
    106 H47         0.0850    3.0960    6.2400 hc        1 MOL      0.104934
    107 H48         1.2360    2.2190    5.3250 hc        1 MOL      0.104934
    108 H49         1.2950    4.0650    5.2260 hc        1 MOL      0.104934
    109 N10        -1.5380    2.4020    1.1920 n         1 MOL     -0.033589
    110 C35        -2.6540    2.6900    0.3130 c3        1 MOL      0.439664
    111 C36        -4.0850    2.2940    0.8440 c         1 MOL      0.077229
    112 O17        -4.2330    1.5830    1.8570 o         1 MOL     -0.353843
    113 C37        -2.3880    1.9430   -1.0140 c3        1 MOL     -0.498058
    114 C38        -3.4820    2.1330   -2.0750 c         1 MOL      0.753084
    115 N11        -3.9010    3.3560   -2.3630 n         1 MOL     -0.831190
    116 O18        -4.0920    1.1700   -2.5550 o         1 MOL     -0.510871
    117 H50        -1.2790    1.4500    1.4030 hn        1 MOL     -0.008951
    118 H51        -2.7890    3.7340   -0.0010 h1        1 MOL     -0.035541
    119 H52        -2.2640    0.9020   -0.7090 hc        1 MOL      0.169658
    120 H53        -1.4820    2.4010   -1.4040 hc        1 MOL      0.169658
    121 H54        -3.5300    4.2180   -1.9830 hn        1 MOL      0.371950
    122 H55        -4.4680    3.4070   -3.2010 hn        1 MOL      0.371950
    123 N12        -5.1740    2.6310    0.1740 n         1 MOL     -0.208469
    124 C39        -6.5630    2.1350    0.5090 c3        1 MOL      0.091330
    125 C40        -6.7930    0.6160    0.4360 c         1 MOL      0.482647
    126 O19        -7.7000    0.0750    1.0650 o         1 MOL     -0.596644
    127 C41        -7.6770    2.7790   -0.3140 c3        1 MOL     -0.215154
    128 C42        -7.4100    2.6610   -1.7760 ca        1 MOL      0.012273
    129 C43        -7.6870    1.4970   -2.4980 ca        1 MOL     -0.035723
    130 C44        -7.0900    3.8310   -2.5010 ca        1 MOL     -0.035723
    131 C45        -7.6140    1.5200   -3.8510 ca        1 MOL     -0.452348
    132 C46        -7.0890    3.8540   -3.9240 ca        1 MOL     -0.452348
    133 C47        -7.3390    2.6600   -4.5960 ca        1 MOL      0.558582
    134 O20        -7.4560    2.6630   -5.9720 oh        1 MOL     -0.584001
    135 H56        -5.0300    3.2120   -0.6440 hn        1 MOL      0.156966
    136 H57        -6.7190    2.3720    1.5600 h1        1 MOL      0.064518
    137 H58        -7.7690    3.7930    0.0650 hc        1 MOL      0.070639
    138 H59        -8.6440    2.3590   -0.0210 hc        1 MOL      0.070639
    139 H60        -8.0150    0.5620   -2.0720 ha        1 MOL      0.100100
    140 H61        -6.8800    4.7630   -1.9930 ha        1 MOL      0.100100
    141 H62        -7.8390    0.6170   -4.3990 ha        1 MOL      0.180152
    142 H63        -6.8270    4.7310   -4.5030 ha        1 MOL      0.180152
    143 H64        -7.8700    1.8360   -6.2310 ho        1 MOL      0.409733
    144 N13        -5.8100   -0.0680   -0.1700 n         1 MOL      0.002402
    145 C48        -5.8290   -1.5150   -0.2530 c3        1 MOL     -0.046343
    146 C49        -5.1830   -2.1560    0.9420 c         1 MOL      0.469653
    147 O21        -5.2350   -3.3690    1.1510 o         1 MOL     -0.516177
    148 C50        -5.1390   -2.1160   -1.4660 c3        1 MOL      0.254741
    149 C51        -6.0120   -1.9350   -2.6670 c3        1 MOL     -0.219738
    150 C52        -5.4240   -2.7570   -3.8070 c         1 MOL      0.698202
    151 O22        -5.1050   -2.1620   -4.8490 o         1 MOL     -0.726762
    152 O23        -5.3490   -4.0230   -3.7480 o         1 MOL     -0.726762
    153 H65        -5.2000    0.4270   -0.8000 hn        1 MOL      0.099095
    154 H66        -6.8450   -1.9290   -0.2630 h1        1 MOL      0.060621
    155 H67        -5.1760   -3.1610   -1.1350 hc        1 MOL     -0.035774
    156 H68        -4.1050   -1.7640   -1.5540 hc        1 MOL     -0.035774
    157 H69        -6.0460   -0.8730   -2.8940 hc        1 MOL      0.020844
    158 H70        -7.0030   -2.3420   -2.4540 hc        1 MOL      0.020844
    159 N14        -4.5170   -1.4000    1.8630 n         1 MOL     -0.475276
    160 C53        -3.6630   -1.8450    2.9520 c3        1 MOL      0.008990
    161 C54        -4.2180   -1.2510    4.2700 c         1 MOL      0.385076
    162 O24        -3.8150   -1.6040    5.3720 o         1 MOL     -0.542920
    163 C55        -2.1980   -1.3070    2.7180 c3        1 MOL     -0.067777
    164 C56        -1.5680   -2.0270    1.5210 c3        1 MOL      0.051915
    165 C57        -0.4100   -1.2300    0.8870 c         1 MOL      0.696961
    166 O25         0.0590   -0.1160    1.2420 o         1 MOL     -0.727917
    167 O26         0.2910   -1.8380    0.0580 o         1 MOL     -0.727917
    168 H71        -4.5280   -0.4070    1.6680 hn        1 MOL      0.175534
    169 H72        -3.5890   -2.9190    3.0580 h1        1 MOL      0.112946
    170 H73        -1.5330   -1.5100    3.5520 hc        1 MOL      0.072193
    171 H74        -2.2630   -0.2370    2.5090 hc        1 MOL      0.072193
    172 H75        -2.3600   -2.2440    0.8130 hc        1 MOL     -0.011022
    173 H76        -1.0960   -2.8800    2.0120 hc        1 MOL     -0.011022
    174 N15        -5.1760   -0.2860    4.1730 n         1 MOL     -0.115405
    175 C58        -5.6940    0.5280    5.1910 c3        1 MOL     -0.117852
    176 H77        -5.0630    0.4490    6.0760 h1        1 MOL      0.045318
    177 H78        -5.7170    1.5640    4.8530 h1        1 MOL      0.045318
    178 H79        -6.7050    0.2030    5.4360 h1        1 MOL      0.045318
    179 H80        -5.4910   -0.0610    3.2450 hn        1 MOL      0.157846
    180 Ca1         2.3210   -0.1680   -0.0110 Ca        1 MOL      1.729200
    181 O27         5.0960   -0.2330    0.5540 oh        1 MOL     -0.863976
    182 H81         5.1540   -1.1210    0.8940 ho        1 MOL      0.404099
    183 H82         5.5180    0.3060    1.2200 ho        1 MOL      0.404099
    184 O28         0.9220    0.8770   -2.1580 oh        1 MOL     -0.863976
    185 O29         2.5810   -0.0200    2.8440 oh        1 MOL     -0.863976
    186 H83         1.1860    0.1880   -2.7790 ho        1 MOL      0.404099
    187 H84         1.8300   -0.4280    3.2970 ho        1 MOL      0.404099
    188 H85         1.3910    1.6570   -2.4500 ho        1 MOL      0.404099
    189 H86         3.1780    0.2180    3.5600 ho        1 MOL      0.404099
@<TRIPOS>BOND
     1    1    2 1   
     2    1    4 1   
     3    1    5 1   
     4    1    6 1   
     5    2    3 2   
     6    2    7 1   
     7    7    8 1   
     8    7   15 1   
     9    8    9 1   
    10    8   11 1   
    11    8   16 1   
    12    9   10 2   
    13    9   19 1   
    14   11   12 1   
    15   11   17 1   
    16   11   18 1   
    17   12   13 1   
    18   12   14 1   
    19   19   20 1   
    20   19   27 1   
    21   20   21 1   
    22   20   23 1   
    23   20   28 1   
    24   21   22 2   
    25   21   38 1   
    26   23   24 1   
    27   23   25 1   
    28   23   29 1   
    29   24   26 1   
    30   24   30 1   
    31   24   31 1   
    32   25   32 1   
    33   25   33 1   
    34   25   34 1   
    35   26   35 1   
    36   26   36 1   
    37   26   37 1   
    38   38   39 1   
    39   38   46 1   
    40   39   40 1   
    41   39   42 1   
    42   39   47 1   
    43   40   41 2   
    44   40   50 1   
    45   42   43 1   
    46   42   48 1   
    47   42   49 1   
    48   43   44 1   
    49   43   45 1   
    50   50   51 1   
    51   50   54 1   
    52   51   52 1   
    53   51   55 1   
    54   51   56 1   
    55   52   53 2   
    56   52   57 1   
    57   57   58 1   
    58   57   65 1   
    59   58   59 1   
    60   58   61 1   
    61   58   66 1   
    62   59   60 2   
    63   59   69 1   
    64   61   62 1   
    65   61   67 1   
    66   61   68 1   
    67   62   63 1   
    68   62   64 1   
    69   69   70 1   
    70   69   73 1   
    71   70   71 1   
    72   70   74 1   
    73   70   75 1   
    74   71   72 2   
    75   71   76 1   
    76   76   77 1   
    77   76   85 1   
    78   77   78 1   
    79   77   80 1   
    80   77   86 1   
    81   78   79 2   
    82   78   93 1   
    83   80   81 1   
    84   80   87 1   
    85   80   88 1   
    86   81   82 1   
    87   81   89 1   
    88   81   90 1   
    89   82   83 1   
    90   82   84 2   
    91   83   91 1   
    92   83   92 1   
    93   93   94 1   
    94   93  100 1   
    95   94   95 1   
    96   94   97 1   
    97   94  101 1   
    98   95   96 2   
    99   95  109 1   
   100   97   98 1   
   101   97   99 1   
   102   97  102 1   
   103   98  103 1   
   104   98  104 1   
   105   98  105 1   
   106   99  106 1   
   107   99  107 1   
   108   99  108 1   
   109  109  110 1   
   110  109  117 1   
   111  110  111 1   
   112  110  113 1   
   113  110  118 1   
   114  111  112 2   
   115  111  123 1   
   116  113  114 1   
   117  113  119 1   
   118  113  120 1   
   119  114  115 1   
   120  114  116 2   
   121  115  121 1   
   122  115  122 1   
   123  123  124 1   
   124  123  135 1   
   125  124  125 1   
   126  124  127 1   
   127  124  136 1   
   128  125  126 2   
   129  125  144 1   
   130  127  128 1   
   131  127  137 1   
   132  127  138 1   
   133  128  129 ar  
   134  128  130 ar  
   135  129  131 ar  
   136  129  139 1   
   137  130  132 ar  
   138  130  140 1   
   139  131  133 ar  
   140  131  141 1   
   141  132  133 ar  
   142  132  142 1   
   143  133  134 1   
   144  134  143 1   
   145  144  145 1   
   146  144  153 1   
   147  145  146 1   
   148  145  148 1   
   149  145  154 1   
   150  146  147 2   
   151  146  159 1   
   152  148  149 1   
   153  148  155 1   
   154  148  156 1   
   155  149  150 1   
   156  149  157 1   
   157  149  158 1   
   158  150  151 1   
   159  150  152 1   
   160  159  160 1   
   161  159  168 1   
   162  160  161 1   
   163  160  163 1   
   164  160  169 1   
   165  161  162 2   
   166  161  174 1   
   167  163  164 1   
   168  163  170 1   
   169  163  171 1   
   170  164  165 1   
   171  164  172 1   
   172  164  173 1   
   173  165  166 1   
   174  165  167 1   
   175  174  175 1   
   176  174  179 1   
   177  175  176 1   
   178  175  177 1   
   179  175  178 1   
   180  181  182 1   
   181  181  183 1   
   182  184  186 1   
   183  184  188 1   
   184  185  187 1   
   185  185  189 1   
@<TRIPOS>SUBSTRUCTURE
     1 MOL         1 TEMP              0 ****  ****    0 ROOT
