@<TRIPOS>MOLECULE
MOL
  189   185     1     0     0
SMALL
resp


@<TRIPOS>ATOM
      1 C1          0.8980    1.7260    5.8740 c3        1 MOL     -0.421070
      2 C2          0.2360    2.0810    4.4810 c         1 MOL      0.751896
      3 O1          0.8080    2.7270    3.5890 o         1 MOL     -0.673939
      4 H1          0.2620    2.0900    6.6810 hc        1 MOL      0.113063
      5 H2          1.0100    0.6450    5.9610 hc        1 MOL      0.113063
      6 H3          1.8780    2.1990    5.9420 hc        1 MOL      0.113063
      7 N1         -1.0120    1.6560    4.3220 n         1 MOL     -0.621367
      8 C3         -1.5890    1.6690    2.9660 c3        1 MOL      0.286447
      9 C4         -1.9340    3.0820    2.4350 c         1 MOL      0.540217
     10 O2         -2.5800    3.7960    3.1640 o         1 MOL     -0.535819
     11 C5         -2.8500    0.7610    3.0420 c3        1 MOL     -0.267911
     12 C6         -3.6580    0.6380    1.7710 c         1 MOL      0.722233
     13 O3         -3.1250    0.8230    0.6370 o         1 MOL     -0.667742
     14 O4         -4.8760    0.3180    1.8760 o         1 MOL     -0.667742
     15 H4         -1.4930    1.1550    5.0690 hn        1 MOL      0.338653
     16 H5         -0.9300    1.2350    2.2190 h1        1 MOL     -0.062419
     17 H6         -3.4560    1.1030    3.8860 hc        1 MOL      0.071159
     18 H7         -2.5800   -0.2500    3.3400 hc        1 MOL      0.071159
     19 N2         -1.3560    3.4170    1.2280 n         1 MOL     -0.339473
     20 C7         -1.3290    4.7940    0.8040 c3        1 MOL      0.029090
     21 C8         -2.3290    5.2050   -0.2980 c         1 MOL      0.461709
     22 O5         -2.4890    6.3830   -0.7180 o         1 MOL     -0.565657
     23 C9          0.0620    5.3370    0.3150 c3        1 MOL     -0.044406
     24 C10         0.9820    5.7390    1.3700 c3        1 MOL      0.021187
     25 C11         1.9800    6.7390    0.7360 c3        1 MOL     -0.137808
     26 C12         3.0760    7.2070    1.7070 c3        1 MOL     -0.065276
     27 N3          3.8880    6.1230    2.1850 n4        1 MOL     -0.263765
     28 H8         -0.8710    2.7050    0.7020 hn        1 MOL      0.270865
     29 H9         -1.7610    5.4810    1.5340 h1        1 MOL      0.060211
     30 H10        -0.1440    6.2340   -0.2640 hc        1 MOL      0.013193
     31 H11         0.5170    4.5540   -0.2880 hc        1 MOL      0.013193
     32 H12         1.4670    4.8460    1.7630 hc        1 MOL      0.058475
     33 H13         0.4170    6.2970    2.1210 hc        1 MOL      0.058475
     34 H14         1.4300    7.6580    0.5400 hc        1 MOL      0.078594
     35 H15         2.4450    6.3570   -0.1800 hc        1 MOL      0.078594
     36 H16         2.5200    7.6470    2.5330 hx        1 MOL      0.100261
     37 H17         3.7050    7.9260    1.1900 hx        1 MOL      0.100261
     38 H18         4.0600    5.4220    1.4770 hn        1 MOL      0.309609
     39 H19         4.7000    6.5000    2.6550 hn        1 MOL      0.309609
     40 H20         3.4930    5.5130    2.8810 hn        1 MOL      0.309609
     41 N4         -2.9980    4.1990   -0.8450 n         1 MOL     -0.230994
     42 C13        -4.2140    4.3190   -1.7130 c3        1 MOL      0.017631
     43 C14        -5.4890    3.8000   -1.1670 c         1 MOL      0.460569
     44 O6         -6.5680    4.1870   -1.5470 o         1 MOL     -0.536801
     45 C15        -3.9230    3.8830   -3.1990 c3        1 MOL     -0.251335
     46 C16        -3.1790    2.5910   -3.2520 c         1 MOL      0.774083
     47 O7         -3.2450    1.7080   -2.3880 o         1 MOL     -0.681096
     48 O8         -2.5600    2.2800   -4.2750 o         1 MOL     -0.681096
     49 H21        -2.8150    3.2750   -0.4740 hn        1 MOL      0.072244
     50 H22        -4.3510    5.3980   -1.7970 h1        1 MOL      0.094459
     51 H23        -3.2580    4.6420   -3.5890 hc        1 MOL      0.079252
     52 H24        -4.8450    3.9130   -3.7900 hc        1 MOL      0.079252
     53 N5         -5.3670    2.9790   -0.1560 n         1 MOL     -0.290981
     54 C17        -6.5160    2.5360    0.5580 c3        1 MOL      0.058428
     55 C18        -7.2450    1.3670   -0.1200 c         1 MOL      0.514698
     56 O9         -8.4730    1.3140    0.0250 o         1 MOL     -0.605582
     57 H25        -4.4610    2.6680    0.1690 hn        1 MOL      0.221304
     58 H26        -7.2830    3.3020    0.6950 h1        1 MOL      0.036435
     59 H27        -6.3060    2.2660    1.5860 h1        1 MOL      0.036435
     60 N6         -6.5740    0.4760   -0.8110 n         1 MOL     -0.195761
     61 C19        -7.1910   -0.6210   -1.5450 c3        1 MOL     -0.021528
     62 C20        -7.2690   -1.9180   -0.6860 c         1 MOL      0.403113
     63 O10        -7.7540   -2.9530   -1.1080 o         1 MOL     -0.542672
     64 C21        -6.4320   -0.8250   -2.8450 c3        1 MOL     -0.259666
     65 C22        -4.9300   -1.1420   -2.6830 c         1 MOL      0.723761
     66 O11        -4.4680   -1.3560   -1.5360 o         1 MOL     -0.678695
     67 O12        -4.1520   -1.1520   -3.6750 o         1 MOL     -0.678695
     68 H28        -5.5670    0.5210   -0.6930 hn        1 MOL      0.110223
     69 H29        -8.2090   -0.3600   -1.8360 h1        1 MOL      0.117100
     70 H30        -6.5800    0.0260   -3.5120 hc        1 MOL      0.088439
     71 H31        -6.9210   -1.6330   -3.3850 hc        1 MOL      0.088439
     72 N7         -6.6880   -1.8500    0.4820 n         1 MOL     -0.182728
     73 C23        -6.7120   -2.9760    1.4620 c3        1 MOL     -0.248064
     74 C24        -5.6090   -3.9790    1.2280 c         1 MOL      0.610816
     75 O13        -5.5830   -4.9850    1.9020 o         1 MOL     -0.601674
     76 H32        -6.1840   -1.0180    0.7270 hn        1 MOL      0.233201
     77 H33        -7.5850   -3.6010    1.2740 h1        1 MOL      0.129068
     78 H34        -6.6350   -2.6350    2.4960 h1        1 MOL      0.129068
     79 N8         -4.5390   -3.6930    0.4900 n         1 MOL     -0.304648
     80 C25        -3.3180   -4.4670    0.3620 c3        1 MOL     -0.175631
     81 C26        -2.0590   -3.5560    0.5000 c         1 MOL      0.790554
     82 O14        -2.1300   -2.3740    0.2020 o         1 MOL     -0.677201
     83 C27        -3.1760   -5.2410   -0.9550 c3        1 MOL      0.340152
     84 C28        -4.0240   -6.5230   -0.9110 c3        1 MOL     -0.425820
     85 O15        -3.4630   -4.6130   -2.1880 oh        1 MOL     -0.600613
     86 H35        -4.6140   -2.8010    0.0050 hn        1 MOL      0.234046
     87 H36        -3.2190   -5.1330    1.2190 h1        1 MOL      0.104103
     88 H37        -2.1470   -5.5700   -0.9980 h1        1 MOL      0.040758
     89 H38        -4.4160   -4.5480   -2.2370 ho        1 MOL      0.423678
     90 H39        -5.0710   -6.3040   -0.6910 hc        1 MOL      0.111568
     91 H40        -4.0420   -7.0030   -1.8910 hc        1 MOL      0.111568
     92 H41        -3.6280   -7.2420   -0.2030 hc        1 MOL      0.111568
     93 N9         -0.9290   -4.1550    0.9370 n         1 MOL     -0.791730
     94 C29         0.2400   -3.3330    1.3840 c3        1 MOL      0.123516
     95 C30         1.3890   -3.8340    0.4620 c         1 MOL      0.544424
     96 O16         1.7910   -4.9960    0.6400 o         1 MOL     -0.575015
     97 C31         0.6670   -3.5800    2.8220 c3        1 MOL      0.329958
     98 C32        -0.4630   -3.7710    3.8170 c3        1 MOL      0.071382
     99 C33         1.5740   -2.4370    3.2720 c3        1 MOL     -0.615565
    100 C34        -0.1910   -3.7530    5.3400 c3        1 MOL     -0.261127
    101 H42        -1.0210   -5.1000    1.2790 hn        1 MOL      0.348331
    102 H43         0.0640   -2.2630    1.2500 h1        1 MOL      0.080518
    103 H44         1.2530   -4.4990    2.8060 hc        1 MOL     -0.057314
    104 H45        -1.0040   -4.6850    3.5660 hc        1 MOL     -0.003211
    105 H46        -1.0370   -2.8680    3.6050 hc        1 MOL     -0.003211
    106 H47         1.1370   -1.4560    3.0760 hc        1 MOL      0.116220
    107 H48         1.7910   -2.4880    4.3380 hc        1 MOL      0.116220
    108 H49         2.4800   -2.4240    2.6600 hc        1 MOL      0.116220
    109 H50         0.7120   -4.2770    5.6390 hc        1 MOL      0.069427
    110 H51        -0.1750   -2.6880    5.5640 hc        1 MOL      0.069427
    111 H52        -1.0280   -4.1500    5.9250 hc        1 MOL      0.069427
    112 N10         1.9480   -2.9380   -0.3260 n         1 MOL     -0.191486
    113 C35         3.1050   -3.2450   -1.2460 c3        1 MOL     -0.192758
    114 C36         4.4260   -3.0970   -0.5240 c         1 MOL      0.409486
    115 O17         4.4590   -2.4640    0.5660 o         1 MOL     -0.339007
    116 C37         3.0900   -2.3710   -2.5510 c3        1 MOL      0.335694
    117 C38         1.8180   -2.4370   -3.3830 c3        1 MOL     -0.410705
    118 O18         3.4710   -1.0750   -2.1460 oh        1 MOL     -0.640655
    119 H53         1.3730   -2.1280   -0.5240 hn        1 MOL      0.265314
    120 H54         2.9070   -4.2610   -1.5820 h1        1 MOL      0.086755
    121 H55         3.8290   -2.7910   -3.2390 h1        1 MOL     -0.007027
    122 H56         2.8300   -0.3920   -2.3750 ho        1 MOL      0.429937
    123 H57         1.5630   -3.4450   -3.7030 hc        1 MOL      0.112838
    124 H58         1.0630   -1.9500   -2.7720 hc        1 MOL      0.112838
    125 H59         2.0130   -1.8510   -4.2860 hc        1 MOL      0.112838
    126 N11         5.4640   -3.6100   -1.1500 n         1 MOL     -0.248160
    127 C39         6.8270   -3.5280   -0.6020 c3        1 MOL     -0.191302
    128 C40         7.1920   -2.0690   -0.2290 c         1 MOL      0.435522
    129 O19         7.6750   -1.8100    0.9020 o         1 MOL     -0.509679
    130 C41         7.9030   -4.0050   -1.5820 c3        1 MOL      0.351481
    131 C42         7.8680   -5.5220   -1.7940 c3        1 MOL     -0.318764
    132 O20         7.9100   -3.2700   -2.7330 oh        1 MOL     -0.641147
    133 H60         5.2670   -4.1380   -1.9870 hn        1 MOL      0.236938
    134 H61         6.8760   -4.0120    0.3710 h1        1 MOL      0.132762
    135 H62         8.8130   -3.7930   -1.0210 h1        1 MOL      0.068350
    136 H63         7.3490   -3.6170   -3.4210 ho        1 MOL      0.416946
    137 H64         8.5830   -5.9580   -2.4980 hc        1 MOL      0.089787
    138 H65         8.0930   -6.0080   -0.8390 hc        1 MOL      0.089787
    139 H66         6.8890   -5.8670   -2.1130 hc        1 MOL      0.089787
    140 N12         6.7920   -1.0390   -1.0440 n         1 MOL     -0.143530
    141 C43         7.0680    0.3580   -0.7670 c3        1 MOL     -0.195672
    142 C44         6.1020    0.9640    0.3040 c         1 MOL      0.562671
    143 O21         6.4500    1.9180    0.9000 o         1 MOL     -0.575999
    144 C45         6.8850    1.0760   -2.1430 c3        1 MOL      0.099102
    145 C46         7.4350    2.4900   -2.1780 c3        1 MOL     -0.177295
    146 C47         6.6640    3.2680   -3.3150 c3        1 MOL      0.159383
    147 C48         7.4220    4.6240   -3.6050 c3        1 MOL     -0.025981
    148 N13         6.8720    5.0970   -4.8500 n4        1 MOL     -0.164355
    149 H67         6.5890   -1.2760   -2.0020 hn        1 MOL      0.172288
    150 H68         8.1150    0.5220   -0.5180 h1        1 MOL      0.113228
    151 H69         5.8160    1.0290   -2.3330 hc        1 MOL     -0.000872
    152 H70         7.3000    0.4930   -2.9720 hc        1 MOL     -0.000872
    153 H71         8.4610    2.3530   -2.5260 hc        1 MOL      0.069843
    154 H72         7.3420    3.1050   -1.2830 hc        1 MOL      0.069843
    155 H73         5.6690    3.4710   -2.9490 hc        1 MOL     -0.030171
    156 H74         6.5780    2.7510   -4.2750 hc        1 MOL     -0.030171
    157 H75         8.4540    4.2670   -3.6670 hx        1 MOL      0.071572
    158 H76         7.2570    5.2760   -2.7490 hx        1 MOL      0.071572
    159 H77         7.0300    4.3340   -5.4900 hn        1 MOL      0.224853
    160 H78         5.8710    5.2400   -4.8690 hn        1 MOL      0.224853
    161 H79         7.3150    5.9620   -5.1220 hn        1 MOL      0.224853
    162 N14         4.9780    0.2830    0.5480 n         1 MOL     -0.186944
    163 C49         3.9440    0.7050    1.5810 c3        1 MOL     -0.167666
    164 C50         4.3650    0.2880    3.0110 c         1 MOL      0.493142
    165 O22         4.0650    1.0650    3.9160 o         1 MOL     -0.563161
    166 C51         2.5310    0.3660    1.2220 c3        1 MOL      0.197667
    167 C52         1.9300    1.1270    0.0790 c3        1 MOL     -0.422207
    168 C53         0.5940    0.6200   -0.3260 c         1 MOL      0.682105
    169 O23         0.3380   -0.6010   -0.3720 o         1 MOL     -0.705896
    170 O24        -0.2870    1.4200   -0.6960 o         1 MOL     -0.705896
    171 H80         4.8680   -0.5400   -0.0290 hn        1 MOL      0.132047
    172 H81         3.9440    1.7880    1.7130 h1        1 MOL      0.057638
    173 H82         2.0190    0.5490    2.1630 hc        1 MOL      0.062653
    174 H83         2.5930   -0.6990    1.0050 hc        1 MOL      0.062653
    175 H84         2.6000    1.1270   -0.7770 hc        1 MOL      0.083541
    176 H85         1.9260    2.1230    0.5160 hc        1 MOL      0.083541
    177 N15         5.1110   -0.7810    3.1930 n         1 MOL     -0.123632
    178 C54         5.9100   -0.9080    4.4720 c3        1 MOL     -0.429461
    179 H86         5.3180   -0.5350    5.3080 h1        1 MOL      0.160659
    180 H87         6.1590   -1.9560    4.6420 h1        1 MOL      0.160659
    181 H88         6.8270   -0.3250    4.3870 h1        1 MOL      0.160659
    182 H89         5.2010   -1.3640    2.3750 hn        1 MOL      0.179484
    183 Ca1        -2.0420   -0.2430   -1.3880 Ca        1 MOL      1.738696
    184 O25        -1.6470   -2.5150   -2.8140 oh        1 MOL     -0.772641
    185 H90        -2.2120   -3.2880   -2.7970 ho        1 MOL      0.376841
    186 H91        -1.4170   -2.4090   -3.7350 ho        1 MOL      0.376841
    187 O26        -0.7240    0.1540   -3.6680 oh        1 MOL     -0.772641
    188 H92        -0.2830   -0.4300   -4.2900 ho        1 MOL      0.376841
    189 H93        -0.8360    0.9770   -4.1410 ho        1 MOL      0.376841
@<TRIPOS>BOND
     1    1    2 1   
     2    1    4 1   
     3    1    5 1   
     4    1    6 1   
     5    2    3 2   
     6    2    7 1   
     7    7    8 1   
     8    7   15 1   
     9    8    9 1   
    10    8   11 1   
    11    8   16 1   
    12    9   10 2   
    13    9   19 1   
    14   11   12 1   
    15   11   17 1   
    16   11   18 1   
    17   12   13 1   
    18   12   14 1   
    19   19   20 1   
    20   19   28 1   
    21   20   21 1   
    22   20   23 1   
    23   20   29 1   
    24   21   22 2   
    25   21   41 1   
    26   23   24 1   
    27   23   30 1   
    28   23   31 1   
    29   24   25 1   
    30   24   32 1   
    31   24   33 1   
    32   25   26 1   
    33   25   34 1   
    34   25   35 1   
    35   26   27 1   
    36   26   36 1   
    37   26   37 1   
    38   27   38 1   
    39   27   39 1   
    40   27   40 1   
    41   41   42 1   
    42   41   49 1   
    43   42   43 1   
    44   42   45 1   
    45   42   50 1   
    46   43   44 2   
    47   43   53 1   
    48   45   46 1   
    49   45   51 1   
    50   45   52 1   
    51   46   47 1   
    52   46   48 1   
    53   53   54 1   
    54   53   57 1   
    55   54   55 1   
    56   54   58 1   
    57   54   59 1   
    58   55   56 2   
    59   55   60 1   
    60   60   61 1   
    61   60   68 1   
    62   61   62 1   
    63   61   64 1   
    64   61   69 1   
    65   62   63 2   
    66   62   72 1   
    67   64   65 1   
    68   64   70 1   
    69   64   71 1   
    70   65   66 1   
    71   65   67 1   
    72   72   73 1   
    73   72   76 1   
    74   73   74 1   
    75   73   77 1   
    76   73   78 1   
    77   74   75 2   
    78   74   79 1   
    79   79   80 1   
    80   79   86 1   
    81   80   81 1   
    82   80   83 1   
    83   80   87 1   
    84   81   82 2   
    85   81   93 1   
    86   83   84 1   
    87   83   85 1   
    88   83   88 1   
    89   84   90 1   
    90   84   91 1   
    91   84   92 1   
    92   85   89 1   
    93   93   94 1   
    94   93  101 1   
    95   94   95 1   
    96   94   97 1   
    97   94  102 1   
    98   95   96 2   
    99   95  112 1   
   100   97   98 1   
   101   97   99 1   
   102   97  103 1   
   103   98  100 1   
   104   98  104 1   
   105   98  105 1   
   106   99  106 1   
   107   99  107 1   
   108   99  108 1   
   109  100  109 1   
   110  100  110 1   
   111  100  111 1   
   112  112  113 1   
   113  112  119 1   
   114  113  114 1   
   115  113  116 1   
   116  113  120 1   
   117  114  115 2   
   118  114  126 1   
   119  116  117 1   
   120  116  118 1   
   121  116  121 1   
   122  117  123 1   
   123  117  124 1   
   124  117  125 1   
   125  118  122 1   
   126  126  127 1   
   127  126  133 1   
   128  127  128 1   
   129  127  130 1   
   130  127  134 1   
   131  128  129 2   
   132  128  140 1   
   133  130  131 1   
   134  130  132 1   
   135  130  135 1   
   136  131  137 1   
   137  131  138 1   
   138  131  139 1   
   139  132  136 1   
   140  140  141 1   
   141  140  149 1   
   142  141  142 1   
   143  141  144 1   
   144  141  150 1   
   145  142  143 2   
   146  142  162 1   
   147  144  145 1   
   148  144  151 1   
   149  144  152 1   
   150  145  146 1   
   151  145  153 1   
   152  145  154 1   
   153  146  147 1   
   154  146  155 1   
   155  146  156 1   
   156  147  148 1   
   157  147  157 1   
   158  147  158 1   
   159  148  159 1   
   160  148  160 1   
   161  148  161 1   
   162  162  163 1   
   163  162  171 1   
   164  163  164 1   
   165  163  166 1   
   166  163  172 1   
   167  164  165 2   
   168  164  177 1   
   169  166  167 1   
   170  166  173 1   
   171  166  174 1   
   172  167  168 1   
   173  167  175 1   
   174  167  176 1   
   175  168  169 1   
   176  168  170 1   
   177  177  178 1   
   178  177  182 1   
   179  178  179 1   
   180  178  180 1   
   181  178  181 1   
   182  184  185 1   
   183  184  186 1   
   184  187  188 1   
   185  187  189 1   
@<TRIPOS>SUBSTRUCTURE
     1 MOL         1 TEMP              0 ****  ****    0 ROOT
