@<TRIPOS>MOLECULE
MOL
  189   185     1     0     0
SMALL
resp


@<TRIPOS>ATOM
      1 C1         -0.5120    1.2340    6.5320 c3        1 MOL     -0.389875
      2 C2         -1.0190    1.4700    5.1270 c         1 MOL      0.737233
      3 O1         -0.2820    2.1210    4.3050 o         1 MOL     -0.632740
      4 H1          0.2410    1.9830    6.7760 hc        1 MOL      0.103224
      5 H2         -1.3410    1.3090    7.2350 hc        1 MOL      0.103224
      6 H3         -0.0700    0.2400    6.5970 hc        1 MOL      0.103224
      7 N1         -2.1760    0.8970    4.6720 n         1 MOL     -0.571367
      8 C3         -2.5560    1.0260    3.2590 c3        1 MOL      0.065239
      9 C4         -2.7730    2.4800    2.8750 c         1 MOL      0.418998
     10 O2         -3.6660    3.1370    3.4070 o         1 MOL     -0.503574
     11 C5         -3.8780    0.2290    3.0680 c3        1 MOL     -0.292332
     12 C6         -4.4600    0.2660    1.5790 c         1 MOL      0.720981
     13 O3         -3.7250    0.6710    0.6180 o         1 MOL     -0.660022
     14 O4         -5.6400   -0.1810    1.4420 o         1 MOL     -0.660022
     15 H4         -2.7520    0.4240    5.3530 hn        1 MOL      0.329169
     16 H5         -1.8300    0.4990    2.6370 h1        1 MOL      0.087909
     17 H6         -4.6300    0.4380    3.8250 hc        1 MOL      0.084783
     18 H7         -3.6400   -0.8200    3.2610 hc        1 MOL      0.084783
     19 N2         -1.9100    3.0800    1.9990 n         1 MOL     -0.046061
     20 C7         -2.0260    4.5470    1.6960 c3        1 MOL     -0.030009
     21 C8         -3.2480    4.9740    0.8770 c         1 MOL      0.490408
     22 O5         -3.9490    5.9380    1.2330 o         1 MOL     -0.537959
     23 C9         -0.8200    5.0430    0.9480 c3        1 MOL     -0.294428
     24 C10        -0.5880    4.4950   -0.4620 c3        1 MOL      0.407530
     25 C11         0.8960    4.8770   -0.7980 c3        1 MOL     -0.301463
     26 C12         1.2400    4.5590   -2.2340 c3        1 MOL      0.391111
     27 N3          2.4720    5.3340   -2.5680 n4        1 MOL     -0.314103
     28 H8         -1.1110    2.5970    1.5920 hn        1 MOL      0.132244
     29 H9         -2.0890    5.0510    2.6650 h1        1 MOL      0.079025
     30 H10         0.0140    4.8110    1.6060 hc        1 MOL      0.083077
     31 H11        -0.9590    6.1200    0.8960 hc        1 MOL      0.083077
     32 H12        -1.2370    5.0310   -1.1700 hc        1 MOL     -0.068345
     33 H13        -0.6360    3.4110   -0.4970 hc        1 MOL     -0.068345
     34 H14         1.6380    4.4660   -0.1140 hc        1 MOL      0.049470
     35 H15         0.9110    5.9600   -0.7600 hc        1 MOL      0.049470
     36 H16         0.3700    4.8190   -2.8380 hx        1 MOL     -0.054944
     37 H17         1.5210    3.5210   -2.3960 hx        1 MOL     -0.054944
     38 H18         2.4050    6.3460   -2.4860 hn        1 MOL      0.291148
     39 H19         3.2540    4.9530   -2.0690 hn        1 MOL      0.291148
     40 H20         2.7260    5.2200   -3.5340 hn        1 MOL      0.291148
     41 N4         -3.7030    4.0520    0.0060 n         1 MOL     -0.380856
     42 C13        -4.5330    4.3770   -1.1600 c3        1 MOL      0.178499
     43 C14        -5.8050    3.6320   -1.2780 c         1 MOL      0.447406
     44 O6         -6.6060    4.0000   -2.1210 o         1 MOL     -0.536794
     45 C15        -3.7110    4.3920   -2.4290 c3        1 MOL     -0.246524
     46 C16        -2.9190    3.1090   -2.8190 c         1 MOL      0.768815
     47 O7         -2.1440    3.0290   -3.8290 o         1 MOL     -0.702855
     48 O8         -3.0810    2.0900   -2.0580 o         1 MOL     -0.702855
     49 H21        -3.3530    3.1030   -0.0340 hn        1 MOL      0.151859
     50 H22        -4.8590    5.4160   -1.0620 h1        1 MOL      0.056511
     51 H23        -2.9180    5.1430   -2.4050 hc        1 MOL      0.061710
     52 H24        -4.3540    4.7580   -3.2260 hc        1 MOL      0.061710
     53 N5         -6.0600    2.4850   -0.5610 n         1 MOL     -0.256100
     54 C17        -7.3900    1.9210   -0.3280 c3        1 MOL     -0.185138
     55 C18        -7.6750    0.6070   -1.1100 c         1 MOL      0.542906
     56 O9         -8.8240    0.2430   -1.2760 o         1 MOL     -0.575046
     57 H25        -5.3260    2.0010   -0.0640 hn        1 MOL      0.219869
     58 H26        -8.2320    2.5910   -0.5570 h1        1 MOL      0.121661
     59 H27        -7.4220    1.7550    0.7430 h1        1 MOL      0.121661
     60 N6         -6.6510   -0.0460   -1.6550 n         1 MOL     -0.204251
     61 C19        -6.8080   -1.2240   -2.5780 c3        1 MOL     -0.117386
     62 C20        -6.9210   -2.5160   -1.7490 c         1 MOL      0.498275
     63 O10        -6.9930   -3.6040   -2.3310 o         1 MOL     -0.565613
     64 C21        -5.6430   -1.2110   -3.5660 c3        1 MOL     -0.021364
     65 C22        -4.2660   -1.0640   -2.9480 c         1 MOL      0.680762
     66 O11        -3.3520   -0.5020   -3.5770 o         1 MOL     -0.671893
     67 O12        -3.9180   -1.7000   -1.9200 o         1 MOL     -0.671893
     68 H28        -5.7330    0.3130   -1.4340 hn        1 MOL      0.106970
     69 H29        -7.7040   -1.0540   -3.1640 h1        1 MOL      0.133196
     70 H30        -5.7890   -0.3950   -4.2810 hc        1 MOL      0.033660
     71 H31        -5.6940   -2.1050   -4.1960 hc        1 MOL      0.033660
     72 N7         -6.8040   -2.4110   -0.4440 n         1 MOL     -0.299783
     73 C23        -6.8610   -3.5480    0.5270 c3        1 MOL     -0.023211
     74 C24        -5.5120   -4.2630    0.5850 c         1 MOL      0.478213
     75 O13        -5.6130   -5.3290    1.1920 o         1 MOL     -0.564737
     76 H32        -6.5230   -1.5110   -0.0740 hn        1 MOL      0.244553
     77 H33        -7.7070   -4.2330    0.4810 h1        1 MOL      0.079003
     78 H34        -6.9540   -3.1260    1.5240 h1        1 MOL      0.079003
     79 N8         -4.4370   -3.7410    0.0640 n         1 MOL     -0.169484
     80 C25        -3.1140   -4.3760    0.0350 c3        1 MOL     -0.138899
     81 C26        -1.9850   -3.4340    0.4160 c         1 MOL      0.775937
     82 O14        -2.0490   -2.2280    0.2630 o         1 MOL     -0.780032
     83 C27        -2.8230   -5.3020   -1.1880 c3        1 MOL      0.412486
     84 C28        -3.9380   -6.3910   -1.5290 c3        1 MOL     -0.460639
     85 O15        -2.9090   -4.3980   -2.2380 oh        1 MOL     -0.596078
     86 H35        -4.4950   -2.8670   -0.4280 hn        1 MOL      0.152457
     87 H36        -3.0720   -5.1270    0.8250 h1        1 MOL      0.021406
     88 H37        -1.7950   -5.6460   -1.1290 h1        1 MOL     -0.005859
     89 H38        -3.1790   -3.5480   -1.8890 ho        1 MOL      0.379960
     90 H39        -3.5410   -7.0680   -2.2870 hc        1 MOL      0.128614
     91 H40        -4.1600   -7.0310   -0.6740 hc        1 MOL      0.128614
     92 H41        -4.8700   -5.9660   -1.8950 hc        1 MOL      0.128614
     93 N9         -0.9000   -3.9390    0.9080 n         1 MOL     -0.486532
     94 C29         0.3200   -3.1420    1.2920 c3        1 MOL     -0.036778
     95 C30         1.5620   -3.5200    0.4800 c         1 MOL      0.522143
     96 O16         1.8510   -4.6240    0.2100 o         1 MOL     -0.556326
     97 C31         0.5820   -3.2100    2.8610 c3        1 MOL      0.087889
     98 C32        -0.6800   -2.7910    3.7370 c3        1 MOL      0.119444
     99 C33         1.7070   -2.1880    3.2250 c3        1 MOL     -0.329230
    100 C34        -0.6540   -3.5780    5.0940 c3        1 MOL     -0.188368
    101 H42        -0.8070   -4.9450    0.8770 hn        1 MOL      0.271330
    102 H43         0.0790   -2.0970    1.1090 h1        1 MOL      0.121966
    103 H44         0.9060   -4.1980    3.1800 hc        1 MOL      0.039601
    104 H45        -1.6360   -3.0430    3.2740 hc        1 MOL      0.002959
    105 H46        -0.6900   -1.7370    4.0190 hc        1 MOL      0.002959
    106 H47         2.6970   -2.3990    2.8130 hc        1 MOL      0.055061
    107 H48         1.4440   -1.1580    2.9880 hc        1 MOL      0.055061
    108 H49         1.9880   -2.2430    4.2740 hc        1 MOL      0.055061
    109 H50        -0.6610   -4.6550    4.9190 hc        1 MOL      0.037629
    110 H51         0.0790   -3.2560    5.8330 hc        1 MOL      0.037629
    111 H52        -1.5960   -3.2790    5.5580 hc        1 MOL      0.037629
    112 N10         2.2730   -2.5240    0.0500 n         1 MOL     -0.156673
    113 C35         3.5940   -2.5780   -0.6550 c3        1 MOL      0.005381
    114 C36         4.8520   -2.4230    0.2310 c         1 MOL      0.294077
    115 O17         4.7720   -1.7530    1.2950 o         1 MOL     -0.363405
    116 C37         3.6420   -1.6170   -1.8720 c3        1 MOL      0.301717
    117 C38         2.4930   -1.7510   -2.7800 c3        1 MOL     -0.638738
    118 O18         3.5320   -0.3610   -1.2950 oh        1 MOL     -0.433290
    119 H53         2.0800   -1.5810    0.3510 hn        1 MOL      0.239586
    120 H54         3.6950   -3.5650   -1.1100 h1        1 MOL      0.042439
    121 H55         4.5760   -1.7320   -2.4260 h1        1 MOL      0.020836
    122 H56         2.6400   -0.3420   -0.9370 ho        1 MOL      0.175091
    123 H57         2.3920   -2.7770   -3.1420 hc        1 MOL      0.178469
    124 H58         1.5820   -1.5650   -2.2190 hc        1 MOL      0.178469
    125 H59         2.6580   -0.9890   -3.5520 hc        1 MOL      0.178469
    126 N11         6.0460   -2.7390   -0.3010 n         1 MOL     -0.238263
    127 C39         7.2880   -2.3050    0.3740 c3        1 MOL     -0.073587
    128 C40         7.3930   -0.7720    0.5540 c         1 MOL      0.120650
    129 O19         7.8270   -0.3280    1.6020 o         1 MOL     -0.451030
    130 C41         8.5360   -2.7440   -0.4040 c3        1 MOL      0.270177
    131 C42         8.6730   -4.2240   -0.6410 c3        1 MOL     -0.520423
    132 O20         8.4390   -2.2440   -1.7130 oh        1 MOL     -0.633962
    133 H60         5.9990   -3.1750   -1.2170 hn        1 MOL      0.208588
    134 H61         7.3970   -2.7610    1.3660 h1        1 MOL      0.147092
    135 H62         9.4600   -2.3340   -0.0020 h1        1 MOL      0.108280
    136 H63         8.3850   -2.9660   -2.3390 ho        1 MOL      0.401353
    137 H64         8.4780   -4.7650    0.2870 hc        1 MOL      0.148302
    138 H65         7.8740   -4.6420   -1.2650 hc        1 MOL      0.148302
    139 H66         9.6180   -4.4750   -1.1200 hc        1 MOL      0.148302
    140 N12         7.0880   -0.0280   -0.4600 n         1 MOL      0.208984
    141 C43         7.0510    1.4680   -0.4860 c3        1 MOL     -0.021600
    142 C44         6.1890    2.0420    0.6400 c         1 MOL      0.386515
    143 O21         6.5380    3.0230    1.2800 o         1 MOL     -0.515442
    144 C45         6.7680    2.1530   -1.9040 c3        1 MOL     -0.245027
    145 C46         7.3460    1.4060   -3.1530 c3        1 MOL     -0.082214
    146 C47         8.8930    1.4550   -3.1780 c3        1 MOL      0.164259
    147 C48         9.3050    0.9940   -4.6470 c3        1 MOL     -0.132610
    148 N13        10.6960    0.6110   -4.9630 n4        1 MOL     -0.146951
    149 H67         6.9670   -0.5370   -1.3190 hn        1 MOL      0.086086
    150 H68         8.0760    1.7570   -0.2760 h1        1 MOL      0.040874
    151 H69         7.2420    3.1390   -1.9460 hc        1 MOL      0.091314
    152 H70         5.6780    2.1820   -1.9220 hc        1 MOL      0.091314
    153 H71         7.0570    1.9220   -4.0670 hc        1 MOL      0.038825
    154 H72         6.9760    0.3800   -3.2400 hc        1 MOL      0.038825
    155 H73         9.3440    0.8270   -2.4170 hc        1 MOL      0.015278
    156 H74         9.3230    2.4430   -3.0790 hc        1 MOL      0.015278
    157 H75         9.0090    1.8210   -5.3060 hx        1 MOL      0.098861
    158 H76         8.6580    0.1460   -4.8550 hx        1 MOL      0.098861
    159 H77        10.6510   -0.0070   -5.7680 hn        1 MOL      0.249797
    160 H78        11.2720    1.3500   -5.3380 hn        1 MOL      0.249797
    161 H79        11.2640    0.1140   -4.3040 hn        1 MOL      0.249797
    162 N14         5.0790    1.4100    0.8780 n         1 MOL     -0.009236
    163 C49         4.1050    1.8230    1.9780 c3        1 MOL     -0.257809
    164 C50         4.6360    1.5150    3.3960 c         1 MOL      0.573719
    165 O22         4.4780    2.4080    4.2170 o         1 MOL     -0.514605
    166 C51         2.7140    1.1320    1.7110 c3        1 MOL      0.004374
    167 C52         1.9820    1.7820    0.5910 c3        1 MOL     -0.206756
    168 C53         0.7010    0.9310    0.2080 c         1 MOL      0.737955
    169 O23        -0.4310    1.3190    0.5510 o         1 MOL     -0.689126
    170 O24         0.7320   -0.1930   -0.3960 o         1 MOL     -0.689126
    171 H80         4.9690    0.5750    0.3190 hn        1 MOL     -0.041144
    172 H81         3.9030    2.8890    1.9290 h1        1 MOL      0.125128
    173 H82         2.1540    1.3770    2.6200 hc        1 MOL      0.093380
    174 H83         2.6780    0.0500    1.6030 hc        1 MOL      0.093380
    175 H84         2.6750    1.8570   -0.2430 hc        1 MOL      0.063110
    176 H85         1.5700    2.6900    1.0360 hc        1 MOL      0.063110
    177 N15         5.1870    0.2870    3.5970 n         1 MOL     -0.212368
    178 C54         5.8310   -0.0750    4.8710 c3        1 MOL     -0.379654
    179 H86         6.5680    0.6840    5.1330 h1        1 MOL      0.140841
    180 H87         5.0770   -0.1350    5.6560 h1        1 MOL      0.140841
    181 H88         6.3260   -1.0400    4.7670 h1        1 MOL      0.140841
    182 H89         5.1010   -0.4680    2.9310 hn        1 MOL      0.245348
    183 Ca1        -1.9090   -0.0940   -1.2020 Ca        1 MOL      1.749828
    184 O25        -0.7810   -2.5470   -2.4140 oh        1 MOL     -0.852073
    185 H90        -1.4420   -3.1900   -2.6740 ho        1 MOL      0.387043
    186 H91        -0.2810   -2.3830   -3.2180 ho        1 MOL      0.387043
    187 O26        -0.4940    1.0400   -3.1440 oh        1 MOL     -0.852073
    188 H92         0.3190    0.9890   -3.6390 ho        1 MOL      0.387043
    189 H93        -0.8860    1.8800   -3.3990 ho        1 MOL      0.387043
@<TRIPOS>BOND
     1    1    2 1   
     2    1    4 1   
     3    1    5 1   
     4    1    6 1   
     5    2    3 2   
     6    2    7 1   
     7    7    8 1   
     8    7   15 1   
     9    8    9 1   
    10    8   11 1   
    11    8   16 1   
    12    9   10 2   
    13    9   19 1   
    14   11   12 1   
    15   11   17 1   
    16   11   18 1   
    17   12   13 1   
    18   12   14 1   
    19   19   20 1   
    20   19   28 1   
    21   20   21 1   
    22   20   23 1   
    23   20   29 1   
    24   21   22 2   
    25   21   41 1   
    26   23   24 1   
    27   23   30 1   
    28   23   31 1   
    29   24   25 1   
    30   24   32 1   
    31   24   33 1   
    32   25   26 1   
    33   25   34 1   
    34   25   35 1   
    35   26   27 1   
    36   26   36 1   
    37   26   37 1   
    38   27   38 1   
    39   27   39 1   
    40   27   40 1   
    41   41   42 1   
    42   41   49 1   
    43   42   43 1   
    44   42   45 1   
    45   42   50 1   
    46   43   44 2   
    47   43   53 1   
    48   45   46 1   
    49   45   51 1   
    50   45   52 1   
    51   46   47 1   
    52   46   48 1   
    53   53   54 1   
    54   53   57 1   
    55   54   55 1   
    56   54   58 1   
    57   54   59 1   
    58   55   56 2   
    59   55   60 1   
    60   60   61 1   
    61   60   68 1   
    62   61   62 1   
    63   61   64 1   
    64   61   69 1   
    65   62   63 2   
    66   62   72 1   
    67   64   65 1   
    68   64   70 1   
    69   64   71 1   
    70   65   66 1   
    71   65   67 1   
    72   72   73 1   
    73   72   76 1   
    74   73   74 1   
    75   73   77 1   
    76   73   78 1   
    77   74   75 2   
    78   74   79 1   
    79   79   80 1   
    80   79   86 1   
    81   80   81 1   
    82   80   83 1   
    83   80   87 1   
    84   81   82 2   
    85   81   93 1   
    86   83   84 1   
    87   83   85 1   
    88   83   88 1   
    89   84   90 1   
    90   84   91 1   
    91   84   92 1   
    92   85   89 1   
    93   93   94 1   
    94   93  101 1   
    95   94   95 1   
    96   94   97 1   
    97   94  102 1   
    98   95   96 2   
    99   95  112 1   
   100   97   98 1   
   101   97   99 1   
   102   97  103 1   
   103   98  100 1   
   104   98  104 1   
   105   98  105 1   
   106   99  106 1   
   107   99  107 1   
   108   99  108 1   
   109  100  109 1   
   110  100  110 1   
   111  100  111 1   
   112  112  113 1   
   113  112  119 1   
   114  113  114 1   
   115  113  116 1   
   116  113  120 1   
   117  114  115 2   
   118  114  126 1   
   119  116  117 1   
   120  116  118 1   
   121  116  121 1   
   122  117  123 1   
   123  117  124 1   
   124  117  125 1   
   125  118  122 1   
   126  126  127 1   
   127  126  133 1   
   128  127  128 1   
   129  127  130 1   
   130  127  134 1   
   131  128  129 2   
   132  128  140 1   
   133  130  131 1   
   134  130  132 1   
   135  130  135 1   
   136  131  137 1   
   137  131  138 1   
   138  131  139 1   
   139  132  136 1   
   140  140  141 1   
   141  140  149 1   
   142  141  142 1   
   143  141  144 1   
   144  141  150 1   
   145  142  143 2   
   146  142  162 1   
   147  144  145 1   
   148  144  151 1   
   149  144  152 1   
   150  145  146 1   
   151  145  153 1   
   152  145  154 1   
   153  146  147 1   
   154  146  155 1   
   155  146  156 1   
   156  147  148 1   
   157  147  157 1   
   158  147  158 1   
   159  148  159 1   
   160  148  160 1   
   161  148  161 1   
   162  162  163 1   
   163  162  171 1   
   164  163  164 1   
   165  163  166 1   
   166  163  172 1   
   167  164  165 2   
   168  164  177 1   
   169  166  167 1   
   170  166  173 1   
   171  166  174 1   
   172  167  168 1   
   173  167  175 1   
   174  167  176 1   
   175  168  169 1   
   176  168  170 1   
   177  177  178 1   
   178  177  182 1   
   179  178  179 1   
   180  178  180 1   
   181  178  181 1   
   182  184  185 1   
   183  184  186 1   
   184  187  188 1   
   185  187  189 1   
@<TRIPOS>SUBSTRUCTURE
     1 MOL         1 TEMP              0 ****  ****    0 ROOT
