@<TRIPOS>MOLECULE
MOL
  182   178     1     0     0
SMALL
resp


@<TRIPOS>ATOM
      1 C1          2.3780    2.8790    4.9070 c3        1 MOL     -0.292199
      2 C2          1.4820    2.7580    3.5900 c         1 MOL      0.738514
      3 O1          2.0060    2.9970    2.4360 o         1 MOL     -0.656711
      4 H1          2.5730    1.8830    5.3060 hc        1 MOL      0.074465
      5 H2          3.3230    3.3620    4.6610 hc        1 MOL      0.074465
      6 H3          1.8490    3.4720    5.6540 hc        1 MOL      0.074465
      7 N1          0.1930    2.5210    3.7850 n         1 MOL     -0.669598
      8 C3         -0.6620    2.3200    2.6220 c3        1 MOL      0.403922
      9 C4         -0.8820    3.7290    1.9290 c         1 MOL      0.391980
     10 O2         -1.3480    4.7480    2.4340 o         1 MOL     -0.555851
     11 C5         -2.0100    1.6680    3.1420 c3        1 MOL     -0.277324
     12 C6         -2.7780    1.0310    1.9960 c         1 MOL      0.885106
     13 O3         -3.7280    0.3210    2.2290 o         1 MOL     -0.728482
     14 O4         -2.5190    1.3210    0.7810 o         1 MOL     -0.728482
     15 H4         -0.1340    2.3850    4.7310 hn        1 MOL      0.344366
     16 H5         -0.2370    1.5730    1.9510 h1        1 MOL     -0.187678
     17 H6         -2.6220    2.4470    3.6000 hc        1 MOL      0.058166
     18 H7         -1.7830    0.8510    3.8260 hc        1 MOL      0.058166
     19 N2         -0.5060    3.7680    0.6410 n         1 MOL     -0.124573
     20 C7         -0.2840    5.1020   -0.0510 c3        1 MOL     -0.177986
     21 C8         -1.5420    5.6070   -0.7470 c         1 MOL      0.495451
     22 O5         -1.7870    6.8360   -0.8380 o         1 MOL     -0.558586
     23 C9          0.8730    5.0430   -1.0620 c3        1 MOL     -0.082364
     24 C10         1.2780    6.4190   -1.7640 c3        1 MOL     -0.091819
     25 C11         1.6060    7.5570   -0.7810 c3        1 MOL     -0.164668
     26 C12         2.4410    7.0410    0.4190 c3        1 MOL      0.068900
     27 N3          3.0800    8.0140    1.4110 n4        1 MOL     -0.485574
     28 H8         -0.1420    2.9640    0.1510 hn        1 MOL      0.365906
     29 H9         -0.0980    5.8930    0.6740 h1        1 MOL      0.118640
     30 H10         0.5120    4.4130   -1.8760 hc        1 MOL      0.054829
     31 H11         1.7340    4.6110   -0.5440 hc        1 MOL      0.054829
     32 H12         0.4780    6.7880   -2.4060 hc        1 MOL      0.063726
     33 H13         2.1280    6.2980   -2.4390 hc        1 MOL      0.063726
     34 H14         0.6430    7.8850   -0.3770 hc        1 MOL      0.074560
     35 H15         2.0620    8.3900   -1.3160 hc        1 MOL      0.074560
     36 H16         3.2320    6.4460   -0.0310 hx        1 MOL      0.109311
     37 H17         1.7540    6.4040    0.9840 hx        1 MOL      0.109311
     38 H18         3.7690    8.5180    0.8760 hn        1 MOL      0.357330
     39 H19         2.4000    8.6730    1.7790 hn        1 MOL      0.357330
     40 H20         3.5660    7.5700    2.1710 hn        1 MOL      0.357330
     41 N4         -2.3600    4.6550   -1.1410 n         1 MOL     -0.123906
     42 C13        -3.7320    4.8830   -1.5230 c3        1 MOL      0.041679
     43 C14        -4.8160    4.3300   -0.6100 c         1 MOL      0.451645
     44 O6         -5.9560    4.8460   -0.7570 o         1 MOL     -0.541422
     45 C15        -3.9110    4.1650   -2.9070 c3        1 MOL     -0.392910
     46 C16        -3.1040    2.9110   -3.0900 c         1 MOL      0.842909
     47 O7         -3.0750    2.0380   -2.2140 o         1 MOL     -0.717210
     48 O8         -2.6020    2.7300   -4.2200 o         1 MOL     -0.717210
     49 H21        -2.1420    3.6920   -0.9110 hn        1 MOL      0.007580
     50 H22        -3.9110    5.9570   -1.6120 h1        1 MOL      0.101319
     51 H23        -3.4650    4.8760   -3.6020 hc        1 MOL      0.111779
     52 H24        -4.9950    4.0640   -2.9690 hc        1 MOL      0.111779
     53 N5         -4.5470    3.5290    0.4010 n         1 MOL     -0.264885
     54 C17        -5.5160    3.0630    1.3600 c3        1 MOL      0.002046
     55 C18        -6.4300    1.9610    0.8060 c         1 MOL      0.414564
     56 O9         -7.6200    1.8820    1.0420 o         1 MOL     -0.522002
     57 H25        -3.6550    3.0470    0.3130 hn        1 MOL      0.137320
     58 H26        -6.1930    3.8370    1.7390 h1        1 MOL      0.074677
     59 H27        -4.9700    2.7590    2.2520 h1        1 MOL      0.074677
     60 N6         -5.7370    1.0460    0.0640 n         1 MOL     -0.034306
     61 C19        -6.4570    0.0180   -0.6760 c3        1 MOL     -0.032741
     62 C20        -6.5210   -1.3200    0.0860 c         1 MOL      0.262193
     63 O10        -7.0920   -2.3080   -0.4230 o         1 MOL     -0.447774
     64 C21        -5.9440   -0.1080   -2.1210 c3        1 MOL     -0.171318
     65 C22        -4.6590   -0.9260   -2.1160 c         1 MOL      0.316973
     66 N7         -4.4990   -1.7870   -3.1220 n         1 MOL     -0.518857
     67 O11        -3.8720   -1.0280   -1.1570 o         1 MOL     -0.374806
     68 H28        -4.7300    0.9930    0.0850 hn        1 MOL      0.044299
     69 H29        -7.5090    0.3160   -0.7130 h1        1 MOL      0.120339
     70 H30        -5.7530    0.9150   -2.4570 hc        1 MOL      0.107301
     71 H31        -6.7240   -0.5580   -2.7390 hc        1 MOL      0.107301
     72 H32        -5.1690   -1.7950   -3.8710 hn        1 MOL      0.295424
     73 H33        -3.6020   -2.2070   -3.3340 hn        1 MOL      0.295424
     74 N8         -5.8900   -1.3440    1.2850 n         1 MOL     -0.153698
     75 C23        -5.8270   -2.5100    2.1900 c3        1 MOL     -0.302540
     76 C24        -4.4720   -3.2520    2.1970 c         1 MOL      0.606984
     77 O12        -4.2920   -4.0540    3.1320 o         1 MOL     -0.611742
     78 H34        -5.4800   -0.4530    1.4820 hn        1 MOL      0.240680
     79 H35        -6.6220   -3.2030    1.9150 h1        1 MOL      0.147656
     80 H36        -5.9600   -2.0470    3.1700 h1        1 MOL      0.147656
     81 N9         -3.5540   -2.9860    1.2800 n         1 MOL     -0.044494
     82 C25        -2.3710   -3.7350    1.1660 c3        1 MOL      0.164698
     83 C26        -1.1840   -2.8070    1.1090 c         1 MOL      0.268811
     84 O13        -1.3080   -1.5850    0.7590 o         1 MOL     -0.580670
     85 C27        -2.4640   -4.5060   -0.1810 c3        1 MOL      0.116347
     86 C28        -3.6170   -5.4550   -0.2280 ca        1 MOL     -0.034372
     87 C29        -4.8050   -4.8670   -0.7230 ca        1 MOL     -0.203546
     88 C30        -3.5550   -6.7920    0.1570 ca        1 MOL     -0.203546
     89 C31        -5.9790   -5.6390   -0.9130 ca        1 MOL     -0.216653
     90 C32        -4.7100   -7.5540    0.0270 ca        1 MOL     -0.216653
     91 C33        -5.9220   -7.0020   -0.4690 ca        1 MOL      0.325332
     92 O14        -6.9950   -7.7940   -0.6620 oh        1 MOL     -0.462731
     93 H37        -3.6240   -2.0850    0.8280 hn        1 MOL      0.065706
     94 H38        -2.1900   -4.4280    1.9960 h1        1 MOL      0.023287
     95 H39        -1.5830   -5.1450   -0.2340 hc        1 MOL     -0.038111
     96 H40        -2.4350   -3.7900   -1.0040 hc        1 MOL     -0.038111
     97 H41        -4.8800   -3.8780   -1.1520 ha        1 MOL      0.149227
     98 H42        -2.6410   -7.2350    0.5030 ha        1 MOL      0.149227
     99 H43        -6.8370   -5.3300   -1.4810 ha        1 MOL      0.133148
    100 H44        -4.5860   -8.6070    0.2450 ha        1 MOL      0.133148
    101 H45        -6.7960   -8.7120   -0.4620 ho        1 MOL      0.344359
    102 N10        -0.0050   -3.4260    1.3730 n         1 MOL     -0.292370
    103 C34         1.2900   -2.8210    1.1810 c3        1 MOL     -0.047202
    104 C35         2.2630   -3.8080    0.5120 c         1 MOL      0.361216
    105 O15         2.2170   -4.9970    0.8370 o         1 MOL     -0.512982
    106 C36         1.9030   -2.1800    2.3960 c3        1 MOL      0.039126
    107 C37         2.0810   -2.9430    3.6970 c3        1 MOL      0.245780
    108 C38         0.9520   -0.9830    2.8660 c3        1 MOL      0.072480
    109 C39         3.5770   -3.3650    3.9020 c3        1 MOL     -0.183971
    110 H46         0.0240   -4.3320    1.8140 hn        1 MOL      0.287561
    111 H47         1.0680   -2.0780    0.4160 h1        1 MOL      0.101924
    112 H48         2.8430   -1.6730    2.1680 hc        1 MOL     -0.077009
    113 H49         1.4150   -3.8010    3.7480 hc        1 MOL     -0.057568
    114 H50         1.8050   -2.3840    4.5860 hc        1 MOL     -0.057568
    115 H51         0.0940   -1.5050    3.2770 hc        1 MOL      0.003742
    116 H52         1.3760   -0.3520    3.6430 hc        1 MOL      0.003742
    117 H53         0.6730   -0.4120    1.9760 hc        1 MOL      0.003742
    118 H54         3.6520   -3.9370    4.8310 hc        1 MOL      0.034124
    119 H55         3.9570   -4.0090    3.1060 hc        1 MOL      0.034124
    120 H56         4.1930   -2.4750    3.9310 hc        1 MOL      0.034124
    121 N11         3.0900   -3.3190   -0.4090 n         1 MOL     -0.119961
    122 C40         4.2110   -3.9480   -0.9970 c3        1 MOL     -0.010302
    123 C41         5.5360   -3.3740   -0.5450 c         1 MOL      0.609215
    124 O16         5.6590   -2.4060    0.1770 o         1 MOL     -0.539539
    125 C42         3.9860   -3.7510   -2.5200 c3        1 MOL     -0.211594
    126 O17         4.1650   -2.4020   -2.8700 oh        1 MOL     -0.554993
    127 H57         3.0260   -2.3550   -0.6830 hn        1 MOL      0.188852
    128 H58         4.2410   -5.0110   -0.7370 h1        1 MOL      0.053394
    129 H59         2.9420   -4.0060   -2.6930 h1        1 MOL      0.134032
    130 H60         4.7280   -4.3600   -3.0470 h1        1 MOL      0.134032
    131 H61         3.3360   -2.0760   -3.2210 ho        1 MOL      0.428305
    132 N12         6.5610   -3.9570   -1.0610 n         1 MOL     -0.506630
    133 C43         8.0190   -3.6830   -0.8150 c3        1 MOL      0.297332
    134 C44         8.3560   -2.1950   -0.9860 c         1 MOL      0.332810
    135 O18         8.8430   -1.5170   -0.0430 o         1 MOL     -0.488643
    136 C45         8.8800   -4.5900   -1.7470 c3        1 MOL     -0.544846
    137 H62         6.2650   -4.6580   -1.7340 hn        1 MOL      0.280157
    138 H63         8.1680   -3.9310    0.2350 h1        1 MOL      0.063778
    139 H64         9.8730   -4.1390   -1.8250 hc        1 MOL      0.159449
    140 H65         8.9390   -5.4610   -1.0750 hc        1 MOL      0.159449
    141 H66         8.3290   -4.6860   -2.6810 hc        1 MOL      0.159449
    142 N13         7.8340   -1.5680   -2.0650 n         1 MOL     -0.204268
    143 C46         7.9310   -0.1710   -2.3390 c3        1 MOL     -0.059974
    144 C47         7.2830    0.7820   -1.3170 c         1 MOL      0.492917
    145 O19         7.9620    1.6390   -0.7800 o         1 MOL     -0.494940
    146 C48         7.4450    0.1470   -3.7190 c3        1 MOL     -0.190264
    147 H67         7.6240   -2.1730   -2.8480 hn        1 MOL      0.233106
    148 H68         8.9940    0.0750   -2.3300 h1        1 MOL      0.100844
    149 H69         7.8350   -0.5340   -4.4780 hc        1 MOL      0.060345
    150 H70         6.3540    0.2120   -3.7350 hc        1 MOL      0.060345
    151 H71         7.7570    1.1190   -4.0850 hc        1 MOL      0.060345
    152 N14         6.0160    0.4780   -0.8630 n         1 MOL     -0.358243
    153 C49         5.2780    1.2480    0.2270 c3        1 MOL     -0.050763
    154 C50         5.9020    1.1710    1.5990 c         1 MOL      0.383920
    155 O20         5.8740    2.2190    2.2920 o         1 MOL     -0.539130
    156 C51         3.8650    0.6740    0.2240 c3        1 MOL      0.058459
    157 C52         2.9640    1.3860   -0.7990 c3        1 MOL      0.121964
    158 C53         1.5100    0.8890   -0.6770 c         1 MOL      0.776261
    159 O21         1.2040   -0.2430   -1.1830 o         1 MOL     -0.749504
    160 O22         0.6200    1.6310   -0.3160 o         1 MOL     -0.749504
    161 H72         5.4950   -0.3190   -1.2050 hn        1 MOL      0.280207
    162 H73         5.2770    2.2900   -0.0990 h1        1 MOL      0.108867
    163 H74         3.4210    0.7980    1.2080 hc        1 MOL      0.000541
    164 H75         3.9180   -0.3770   -0.0770 hc        1 MOL      0.000541
    165 H76         3.2690    1.0570   -1.7950 hc        1 MOL     -0.088070
    166 H77         3.0520    2.4720   -0.7410 hc        1 MOL     -0.088070
    167 N15         6.6130    0.0890    1.9350 n         1 MOL     -0.031579
    168 C54         7.3510   -0.0880    3.1710 c3        1 MOL     -0.236434
    169 H78         6.9370    0.5650    3.9380 h1        1 MOL      0.095156
    170 H79         7.2730   -1.1260    3.4960 h1        1 MOL      0.095156
    171 H80         8.3990    0.1630    3.0080 h1        1 MOL      0.095156
    172 H81         6.5830   -0.6740    1.2730 hn        1 MOL      0.173955
    173 Ca1        -1.4190    0.2150   -1.2700 Ca        1 MOL      1.775757
    174 O23        -1.7510    0.1370   -4.0310 oh        1 MOL     -0.852241
    175 H82        -2.3110   -0.3700   -4.6090 ho        1 MOL      0.398020
    176 H83        -2.0210    1.0520   -4.1890 ho        1 MOL      0.398020
    177 O24        -0.2070    2.2620   -3.0570 oh        1 MOL     -0.852241
    178 H84        -0.8090    2.6880   -3.6700 ho        1 MOL      0.398020
    179 H85         0.6690    2.4380   -3.4120 ho        1 MOL      0.398020
    180 O25        -0.7430   -2.1460   -2.0810 oh        1 MOL     -0.852241
    181 H86        -1.1690   -3.0100   -2.1380 ho        1 MOL      0.398020
    182 H87         0.1570   -2.2970   -2.3590 ho        1 MOL      0.398020
@<TRIPOS>BOND
     1    1    2 1   
     2    1    4 1   
     3    1    5 1   
     4    1    6 1   
     5    2    3 2   
     6    2    7 1   
     7    7    8 1   
     8    7   15 1   
     9    8    9 1   
    10    8   11 1   
    11    8   16 1   
    12    9   10 2   
    13    9   19 1   
    14   11   12 1   
    15   11   17 1   
    16   11   18 1   
    17   12   13 1   
    18   12   14 1   
    19   19   20 1   
    20   19   28 1   
    21   20   21 1   
    22   20   23 1   
    23   20   29 1   
    24   21   22 2   
    25   21   41 1   
    26   23   24 1   
    27   23   30 1   
    28   23   31 1   
    29   24   25 1   
    30   24   32 1   
    31   24   33 1   
    32   25   26 1   
    33   25   34 1   
    34   25   35 1   
    35   26   27 1   
    36   26   36 1   
    37   26   37 1   
    38   27   38 1   
    39   27   39 1   
    40   27   40 1   
    41   41   42 1   
    42   41   49 1   
    43   42   43 1   
    44   42   45 1   
    45   42   50 1   
    46   43   44 2   
    47   43   53 1   
    48   45   46 1   
    49   45   51 1   
    50   45   52 1   
    51   46   47 1   
    52   46   48 1   
    53   53   54 1   
    54   53   57 1   
    55   54   55 1   
    56   54   58 1   
    57   54   59 1   
    58   55   56 2   
    59   55   60 1   
    60   60   61 1   
    61   60   68 1   
    62   61   62 1   
    63   61   64 1   
    64   61   69 1   
    65   62   63 2   
    66   62   74 1   
    67   64   65 1   
    68   64   70 1   
    69   64   71 1   
    70   65   66 1   
    71   65   67 2   
    72   66   72 1   
    73   66   73 1   
    74   74   75 1   
    75   74   78 1   
    76   75   76 1   
    77   75   79 1   
    78   75   80 1   
    79   76   77 2   
    80   76   81 1   
    81   81   82 1   
    82   81   93 1   
    83   82   83 1   
    84   82   85 1   
    85   82   94 1   
    86   83   84 2   
    87   83  102 1   
    88   85   86 1   
    89   85   95 1   
    90   85   96 1   
    91   86   87 ar  
    92   86   88 ar  
    93   87   89 ar  
    94   87   97 1   
    95   88   90 ar  
    96   88   98 1   
    97   89   91 ar  
    98   89   99 1   
    99   90   91 ar  
   100   90  100 1   
   101   91   92 1   
   102   92  101 1   
   103  102  103 1   
   104  102  110 1   
   105  103  104 1   
   106  103  106 1   
   107  103  111 1   
   108  104  105 2   
   109  104  121 1   
   110  106  107 1   
   111  106  108 1   
   112  106  112 1   
   113  107  109 1   
   114  107  113 1   
   115  107  114 1   
   116  108  115 1   
   117  108  116 1   
   118  108  117 1   
   119  109  118 1   
   120  109  119 1   
   121  109  120 1   
   122  121  122 1   
   123  121  127 1   
   124  122  123 1   
   125  122  125 1   
   126  122  128 1   
   127  123  124 2   
   128  123  132 1   
   129  125  126 1   
   130  125  129 1   
   131  125  130 1   
   132  126  131 1   
   133  132  133 1   
   134  132  137 1   
   135  133  134 1   
   136  133  136 1   
   137  133  138 1   
   138  134  135 2   
   139  134  142 1   
   140  136  139 1   
   141  136  140 1   
   142  136  141 1   
   143  142  143 1   
   144  142  147 1   
   145  143  144 1   
   146  143  146 1   
   147  143  148 1   
   148  144  145 2   
   149  144  152 1   
   150  146  149 1   
   151  146  150 1   
   152  146  151 1   
   153  152  153 1   
   154  152  161 1   
   155  153  154 1   
   156  153  156 1   
   157  153  162 1   
   158  154  155 2   
   159  154  167 1   
   160  156  157 1   
   161  156  163 1   
   162  156  164 1   
   163  157  158 1   
   164  157  165 1   
   165  157  166 1   
   166  158  159 1   
   167  158  160 1   
   168  167  168 1   
   169  167  172 1   
   170  168  169 1   
   171  168  170 1   
   172  168  171 1   
   173  174  175 1   
   174  174  176 1   
   175  177  178 1   
   176  177  179 1   
   177  180  181 1   
   178  180  182 1   
@<TRIPOS>SUBSTRUCTURE
     1 MOL         1 TEMP              0 ****  ****    0 ROOT
