@<TRIPOS>MOLECULE
MOL
  189   185     1     0     0
SMALL
resp


@<TRIPOS>ATOM
      1 C1          0.7250   -2.1460    6.5550 c3        1 MOL     -0.410921
      2 C2          1.0320   -2.2480    5.0480 c         1 MOL      0.790967
      3 O1          1.2370   -1.1980    4.4010 o         1 MOL     -0.648723
      4 H1         -0.3540   -2.1190    6.7040 hc        1 MOL      0.108137
      5 H2          1.1420   -3.0110    7.0710 hc        1 MOL      0.108137
      6 H3          1.1690   -1.2340    6.9550 hc        1 MOL      0.108137
      7 N1          1.2070   -3.4500    4.4410 n         1 MOL     -0.768882
      8 C3          1.6960   -3.5940    3.0960 c3        1 MOL      0.471514
      9 C4          1.2950   -4.7720    2.1950 c         1 MOL      0.382842
     10 O2          1.2280   -5.9340    2.6520 o         1 MOL     -0.601948
     11 C5          3.2720   -3.5170    3.1640 c3        1 MOL     -0.393874
     12 C6          3.9180   -3.2950    1.7930 c         1 MOL      0.641832
     13 O3          3.3070   -2.6130    0.9390 o         1 MOL     -0.635154
     14 O4          4.9820   -3.8370    1.5370 o         1 MOL     -0.635154
     15 H4          1.0690   -4.2920    4.9930 hn        1 MOL      0.341935
     16 H5          1.3950   -2.7630    2.4460 h1        1 MOL     -0.009402
     17 H6          3.4840   -4.5460    3.4190 hc        1 MOL      0.097348
     18 H7          3.6630   -2.8710    3.9520 hc        1 MOL      0.097348
     19 N2          1.1680   -4.5560    0.8750 n         1 MOL     -0.026362
     20 C7          0.9730   -5.5860   -0.1830 c3        1 MOL     -0.146125
     21 C8          2.0350   -5.5330   -1.2420 c         1 MOL      0.477315
     22 O5          2.2910   -6.5240   -1.9470 o         1 MOL     -0.584345
     23 C9         -0.4380   -5.5140   -0.8100 c3        1 MOL      0.267645
     24 C10        -1.4950   -5.7540    0.3590 c3        1 MOL     -0.013583
     25 C11        -0.7300   -6.4520   -1.9710 c3        1 MOL     -0.240965
     26 C12        -2.7470   -4.9970    0.0650 c3        1 MOL     -0.146277
     27 H8          1.4110   -3.6160    0.6200 hn        1 MOL      0.120495
     28 H9          0.9680   -6.5830    0.2680 h1        1 MOL      0.087199
     29 H10        -0.5920   -4.5020   -1.2010 hc        1 MOL      0.010162
     30 H11        -1.0690   -5.2540    1.2250 hc        1 MOL     -0.013540
     31 H12        -1.5600   -6.7830    0.6930 hc        1 MOL     -0.013540
     32 H13        -1.7320   -6.2620   -2.3540 hc        1 MOL      0.043812
     33 H14        -0.0880   -6.2000   -2.8270 hc        1 MOL      0.043812
     34 H15        -0.6350   -7.5210   -1.7750 hc        1 MOL      0.043812
     35 H16        -2.6870   -4.0260   -0.4280 hc        1 MOL      0.037024
     36 H17        -3.3770   -5.6450   -0.5490 hc        1 MOL      0.037024
     37 H18        -3.1810   -4.8930    1.0580 hc        1 MOL      0.037024
     38 N3          2.7600   -4.4420   -1.4690 n         1 MOL     -0.217015
     39 C13         3.5050   -4.1910   -2.7470 c3        1 MOL      0.021149
     40 C14         4.8860   -3.5240   -2.6220 c         1 MOL      0.341484
     41 O6          5.7150   -3.5380   -3.5100 o         1 MOL     -0.533619
     42 C15         2.5960   -3.3370   -3.7670 c3        1 MOL     -0.189802
     43 C16         1.9980   -1.9960   -3.2230 c         1 MOL      0.744113
     44 O7          2.4890   -1.5290   -2.1810 o         1 MOL     -0.686745
     45 O8          1.2470   -1.3360   -3.9460 o         1 MOL     -0.686745
     46 H19         2.8370   -3.6980   -0.7930 hn        1 MOL      0.135603
     47 H20         3.7480   -5.1480   -3.2080 h1        1 MOL      0.087962
     48 H21         1.7420   -3.9360   -4.1050 hc        1 MOL      0.047807
     49 H22         3.2590   -3.1850   -4.6170 hc        1 MOL      0.047807
     50 N4          5.2580   -3.0210   -1.4640 n         1 MOL      0.008668
     51 C17         6.6410   -2.5870   -1.1320 c3        1 MOL      0.023496
     52 C18         7.1370   -1.3620   -1.9330 c         1 MOL      0.313380
     53 O9          8.2610   -1.3740   -2.4080 o         1 MOL     -0.556434
     54 H23         4.6770   -3.3050   -0.6850 hn        1 MOL      0.047727
     55 H24         7.3170   -3.4300   -1.2820 h1        1 MOL      0.032251
     56 H25         6.6770   -2.4590   -0.0470 h1        1 MOL      0.032251
     57 N5          6.2820   -0.3700   -2.0830 n         1 MOL     -0.048261
     58 C19         6.5410    0.8370   -2.8310 c3        1 MOL      0.144930
     59 C20         7.0600    1.8720   -1.8440 c         1 MOL      0.266356
     60 O10         7.7340    2.8500   -2.2160 o         1 MOL     -0.532218
     61 C21         5.2920    1.3830   -3.5590 c3        1 MOL     -0.435908
     62 C22         4.0710    1.6360   -2.6160 c         1 MOL      0.828987
     63 O11         4.0770    1.1250   -1.4580 o         1 MOL     -0.724006
     64 O12         2.9980    2.1070   -3.1140 o         1 MOL     -0.724006
     65 H26         5.3450   -0.4910   -1.7090 hn        1 MOL      0.060326
     66 H27         7.2600    0.6690   -3.6330 h1        1 MOL      0.076327
     67 H28         4.9220    0.6120   -4.2410 hc        1 MOL      0.124928
     68 H29         5.5560    2.3190   -4.0330 hc        1 MOL      0.124928
     69 N6          6.7620    1.7710   -0.5270 n         1 MOL     -0.081584
     70 C23         7.3520    2.6450    0.4710 c3        1 MOL     -0.158323
     71 C24         6.2290    3.5120    1.0510 c         1 MOL      0.541952
     72 O13         6.4920    4.3110    2.0130 o         1 MOL     -0.618725
     73 H30         6.3330    0.9500   -0.1420 hn        1 MOL      0.172728
     74 H31         8.1680    3.2800    0.1490 h1        1 MOL      0.091648
     75 H32         7.6840    2.0500    1.3170 h1        1 MOL      0.091648
     76 N7          4.9600    3.4740    0.5740 n         1 MOL     -0.309438
     77 C25         3.7860    4.2660    1.0380 c3        1 MOL     -0.068362
     78 C26         2.5350    3.3760    1.4030 c         1 MOL      0.608488
     79 O14         2.3850    2.3400    0.7330 o         1 MOL     -0.616463
     80 C27         3.3980    5.3530   -0.0240 c3        1 MOL     -0.017762
     81 C28         4.3900    6.5620   -0.1560 c3        1 MOL     -0.318261
     82 C29         3.8870    7.7920   -0.9960 c         1 MOL      0.704673
     83 N8          3.5450    7.5480   -2.2380 n         1 MOL     -0.803518
     84 O15         3.9500    8.9480   -0.5740 o         1 MOL     -0.594240
     85 H33         4.8180    2.9210   -0.2680 hn        1 MOL      0.254564
     86 H34         4.0390    4.7780    1.9660 h1        1 MOL      0.080771
     87 H35         2.4100    5.7680    0.1950 hc        1 MOL      0.051233
     88 H36         3.3410    4.8130   -0.9620 hc        1 MOL      0.051233
     89 H37         5.3320    6.2750   -0.6330 hc        1 MOL      0.110964
     90 H38         4.5870    6.9540    0.8390 hc        1 MOL      0.110964
     91 H39         3.5840    6.6140   -2.6360 hn        1 MOL      0.362391
     92 H40         3.3930    8.2880   -2.9060 hn        1 MOL      0.362391
     93 N9          1.6610    3.7760    2.3380 n         1 MOL     -0.525102
     94 C30         0.3460    3.0770    2.5690 c3        1 MOL      0.155522
     95 C31        -0.7400    3.6030    1.6200 c         1 MOL      0.469069
     96 O16        -0.9130    4.8260    1.5620 o         1 MOL     -0.596668
     97 C32        -0.1210    3.3040    4.0730 c3        1 MOL      0.195213
     98 C33        -1.5650    2.9030    4.4210 c3        1 MOL     -0.257079
     99 C34         0.7870    2.5960    5.0270 c3        1 MOL     -0.257079
    100 H41         1.9210    4.5010    2.9890 hn        1 MOL      0.289752
    101 H42         0.4530    2.0210    2.3190 h1        1 MOL      0.032011
    102 H43        -0.0570    4.3850    4.2260 hc        1 MOL     -0.030751
    103 H44        -1.8140    3.0720    5.4700 hc        1 MOL      0.059192
    104 H45        -2.2850    3.5050    3.8690 hc        1 MOL      0.059192
    105 H46        -1.6760    1.8310    4.2630 hc        1 MOL      0.059192
    106 H47         0.5580    1.5340    4.8830 hc        1 MOL      0.059192
    107 H48         1.8290    2.7910    4.8070 hc        1 MOL      0.059192
    108 H49         0.5660    2.8550    6.0530 hc        1 MOL      0.059192
    109 N10        -1.4770    2.7240    0.8640 n         1 MOL     -0.119187
    110 C35        -2.6680    2.9220    0.0290 c3        1 MOL      0.083407
    111 C36        -4.0250    2.7070    0.7600 c         1 MOL      0.432100
    112 O17        -3.9930    2.1520    1.8700 o         1 MOL     -0.527488
    113 C37        -2.4610    1.9380   -1.1360 c3        1 MOL     -0.016677
    114 C38        -3.3010    2.2280   -2.3620 c         1 MOL      0.716156
    115 N11        -3.3420    3.4410   -2.8520 n         1 MOL     -0.807995
    116 O18        -4.1450    1.4510   -2.7490 o         1 MOL     -0.531587
    117 H50        -1.1270    1.7810    0.9370 hn        1 MOL      0.088984
    118 H51        -2.7520    3.9330   -0.3510 h1        1 MOL     -0.026676
    119 H52        -2.7030    0.9230   -0.8430 hc        1 MOL      0.022894
    120 H53        -1.4280    1.9310   -1.4680 hc        1 MOL      0.022894
    121 H54        -2.8260    4.2180   -2.4450 hn        1 MOL      0.354207
    122 H55        -4.0190    3.6080   -3.5880 hn        1 MOL      0.354207
    123 N12        -5.0980    3.0300    0.0530 n         1 MOL     -0.314559
    124 C39        -6.3900    2.6470    0.6050 c3        1 MOL      0.097078
    125 C40        -6.6190    1.0960    0.6290 c         1 MOL      0.384614
    126 O19        -7.3060    0.4960    1.4400 o         1 MOL     -0.560618
    127 C41        -7.5180    3.4000   -0.1810 c3        1 MOL     -0.035433
    128 C42        -7.9840    2.6940   -1.4370 ca        1 MOL     -0.028668
    129 C43        -8.9680    1.6740   -1.3860 ca        1 MOL     -0.089482
    130 C44        -7.3040    2.8680   -2.6790 ca        1 MOL     -0.089482
    131 C45        -9.2650    0.8860   -2.5050 ca        1 MOL     -0.415853
    132 C46        -7.4980    2.0330   -3.7530 ca        1 MOL     -0.415853
    133 C47        -8.5480    1.0720   -3.7130 ca        1 MOL      0.450676
    134 O20        -8.7000    0.3530   -4.8180 oh        1 MOL     -0.477140
    135 H56        -4.9790    3.6150   -0.7560 hn        1 MOL      0.223823
    136 H57        -6.4550    3.0890    1.6010 h1        1 MOL      0.062570
    137 H58        -7.0540    4.3430   -0.5000 hc        1 MOL      0.002894
    138 H59        -8.3840    3.5110    0.4610 hc        1 MOL      0.002894
    139 H60        -9.4040    1.4480   -0.4250 ha        1 MOL      0.115030
    140 H61        -6.5100    3.5920   -2.7760 ha        1 MOL      0.115030
    141 H62        -9.8110   -0.0120   -2.2700 ha        1 MOL      0.195816
    142 H63        -7.0120    2.2480   -4.6980 ha        1 MOL      0.195816
    143 H64        -9.3260   -0.3670   -4.7590 ho        1 MOL      0.368758
    144 N13        -5.9560    0.4170   -0.2160 n         1 MOL      0.087072
    145 C48        -5.9830   -1.1050   -0.1910 c3        1 MOL     -0.144875
    146 C49        -5.1870   -1.7940    0.8940 c         1 MOL      0.357584
    147 O21        -5.2270   -3.0130    1.0570 o         1 MOL     -0.558248
    148 C50        -5.5180   -1.5500   -1.6110 c3        1 MOL     -0.072561
    149 C51        -6.4920   -1.0420   -2.7230 c3        1 MOL     -0.076853
    150 C52        -6.2290   -1.8100   -4.0520 c         1 MOL      0.713686
    151 O22        -7.1190   -2.6290   -4.4770 o         1 MOL     -0.730693
    152 O23        -5.1400   -1.5890   -4.5990 o         1 MOL     -0.730693
    153 H65        -5.6870    0.8340   -1.0910 hn        1 MOL      0.032501
    154 H66        -6.9740   -1.5070    0.0050 h1        1 MOL      0.110858
    155 H67        -5.4840   -2.6390   -1.6450 hc        1 MOL      0.086621
    156 H68        -4.5050   -1.2010   -1.7600 hc        1 MOL      0.086621
    157 H69        -6.3630    0.0400   -2.8430 hc        1 MOL     -0.003341
    158 H70        -7.5130   -1.2270   -2.3800 hc        1 MOL     -0.003341
    159 N14        -4.3810   -1.0730    1.6200 n         1 MOL     -0.080497
    160 C53        -3.5710   -1.4530    2.7730 c3        1 MOL     -0.166903
    161 C54        -4.1750   -1.1060    4.1810 c         1 MOL      0.421545
    162 O24        -3.6700   -1.4810    5.2220 o         1 MOL     -0.544919
    163 C55        -2.1890   -0.8260    2.6040 c3        1 MOL     -0.013105
    164 C56        -1.4500   -1.6940    1.5510 c3        1 MOL     -0.186989
    165 C57        -0.2780   -1.0430    0.8220 c         1 MOL      0.886426
    166 O25         0.0140    0.1700    0.9570 o         1 MOL     -0.811131
    167 O26         0.4140   -1.7790    0.1690 o         1 MOL     -0.811131
    168 H71        -4.3390   -0.0900    1.3680 hn        1 MOL      0.052502
    169 H72        -3.5300   -2.5340    2.8650 h1        1 MOL      0.145400
    170 H73        -1.5740   -0.9600    3.5020 hc        1 MOL      0.082083
    171 H74        -2.3180    0.2180    2.3070 hc        1 MOL      0.082083
    172 H75        -2.1000   -1.9870    0.7280 hc        1 MOL      0.065672
    173 H76        -1.1220   -2.7060    1.8070 hc        1 MOL      0.065672
    174 N15        -5.2820   -0.4000    4.2800 n         1 MOL     -0.143736
    175 C58        -5.8800    0.1870    5.4590 c3        1 MOL     -0.100350
    176 H77        -6.9650    0.1370    5.3770 h1        1 MOL      0.052433
    177 H78        -5.5570   -0.3630    6.3430 h1        1 MOL      0.052433
    178 H79        -5.5690    1.2280    5.5440 h1        1 MOL      0.052433
    179 H80        -5.7540   -0.0720    3.4540 hn        1 MOL      0.178504
    180 Ca1         2.3570   -0.1030   -0.1240 Ca        1 MOL      1.799619
    181 O27         5.0710   -0.4190    0.7360 oh        1 MOL     -0.908935
    182 H81         5.5390   -0.2910    1.5580 ho        1 MOL      0.430302
    183 H82         4.8720   -1.3550    0.7250 ho        1 MOL      0.430302
    184 O28         2.7630   -0.0550    2.6820 oh        1 MOL     -0.908935
    185 H83         2.0340   -0.4440    3.1650 ho        1 MOL      0.430302
    186 H84         3.2120    0.5000    3.3300 ho        1 MOL      0.430302
    187 O29         0.9930    0.7960   -2.3070 oh        1 MOL     -0.908935
    188 H85         0.9500    0.0520   -2.9070 ho        1 MOL      0.430302
    189 H86         1.6220    1.4030   -2.7180 ho        1 MOL      0.430302
@<TRIPOS>BOND
     1    1    2 1   
     2    1    4 1   
     3    1    5 1   
     4    1    6 1   
     5    2    3 2   
     6    2    7 1   
     7    7    8 1   
     8    7   15 1   
     9    8    9 1   
    10    8   11 1   
    11    8   16 1   
    12    9   10 2   
    13    9   19 1   
    14   11   12 1   
    15   11   17 1   
    16   11   18 1   
    17   12   13 1   
    18   12   14 1   
    19   19   20 1   
    20   19   27 1   
    21   20   21 1   
    22   20   23 1   
    23   20   28 1   
    24   21   22 2   
    25   21   38 1   
    26   23   24 1   
    27   23   25 1   
    28   23   29 1   
    29   24   26 1   
    30   24   30 1   
    31   24   31 1   
    32   25   32 1   
    33   25   33 1   
    34   25   34 1   
    35   26   35 1   
    36   26   36 1   
    37   26   37 1   
    38   38   39 1   
    39   38   46 1   
    40   39   40 1   
    41   39   42 1   
    42   39   47 1   
    43   40   41 2   
    44   40   50 1   
    45   42   43 1   
    46   42   48 1   
    47   42   49 1   
    48   43   44 1   
    49   43   45 1   
    50   50   51 1   
    51   50   54 1   
    52   51   52 1   
    53   51   55 1   
    54   51   56 1   
    55   52   53 2   
    56   52   57 1   
    57   57   58 1   
    58   57   65 1   
    59   58   59 1   
    60   58   61 1   
    61   58   66 1   
    62   59   60 2   
    63   59   69 1   
    64   61   62 1   
    65   61   67 1   
    66   61   68 1   
    67   62   63 1   
    68   62   64 1   
    69   69   70 1   
    70   69   73 1   
    71   70   71 1   
    72   70   74 1   
    73   70   75 1   
    74   71   72 2   
    75   71   76 1   
    76   76   77 1   
    77   76   85 1   
    78   77   78 1   
    79   77   80 1   
    80   77   86 1   
    81   78   79 2   
    82   78   93 1   
    83   80   81 1   
    84   80   87 1   
    85   80   88 1   
    86   81   82 1   
    87   81   89 1   
    88   81   90 1   
    89   82   83 1   
    90   82   84 2   
    91   83   91 1   
    92   83   92 1   
    93   93   94 1   
    94   93  100 1   
    95   94   95 1   
    96   94   97 1   
    97   94  101 1   
    98   95   96 2   
    99   95  109 1   
   100   97   98 1   
   101   97   99 1   
   102   97  102 1   
   103   98  103 1   
   104   98  104 1   
   105   98  105 1   
   106   99  106 1   
   107   99  107 1   
   108   99  108 1   
   109  109  110 1   
   110  109  117 1   
   111  110  111 1   
   112  110  113 1   
   113  110  118 1   
   114  111  112 2   
   115  111  123 1   
   116  113  114 1   
   117  113  119 1   
   118  113  120 1   
   119  114  115 1   
   120  114  116 2   
   121  115  121 1   
   122  115  122 1   
   123  123  124 1   
   124  123  135 1   
   125  124  125 1   
   126  124  127 1   
   127  124  136 1   
   128  125  126 2   
   129  125  144 1   
   130  127  128 1   
   131  127  137 1   
   132  127  138 1   
   133  128  129 ar  
   134  128  130 ar  
   135  129  131 ar  
   136  129  139 1   
   137  130  132 ar  
   138  130  140 1   
   139  131  133 ar  
   140  131  141 1   
   141  132  133 ar  
   142  132  142 1   
   143  133  134 1   
   144  134  143 1   
   145  144  145 1   
   146  144  153 1   
   147  145  146 1   
   148  145  148 1   
   149  145  154 1   
   150  146  147 2   
   151  146  159 1   
   152  148  149 1   
   153  148  155 1   
   154  148  156 1   
   155  149  150 1   
   156  149  157 1   
   157  149  158 1   
   158  150  151 1   
   159  150  152 1   
   160  159  160 1   
   161  159  168 1   
   162  160  161 1   
   163  160  163 1   
   164  160  169 1   
   165  161  162 2   
   166  161  174 1   
   167  163  164 1   
   168  163  170 1   
   169  163  171 1   
   170  164  165 1   
   171  164  172 1   
   172  164  173 1   
   173  165  166 1   
   174  165  167 1   
   175  174  175 1   
   176  174  179 1   
   177  175  176 1   
   178  175  177 1   
   179  175  178 1   
   180  181  182 1   
   181  181  183 1   
   182  184  185 1   
   183  184  186 1   
   184  187  188 1   
   185  187  189 1   
@<TRIPOS>SUBSTRUCTURE
     1 MOL         1 TEMP              0 ****  ****    0 ROOT
