@<TRIPOS>MOLECULE
MOL
  175   173     1     0     0
SMALL
resp


@<TRIPOS>ATOM
      1 C1          0.4840    4.3520    5.3600 c3        1 MOL     -0.303280
      2 C2         -0.1450    4.2880    3.9510 c         1 MOL      0.698617
      3 O1          0.5270    4.5500    2.9520 o         1 MOL     -0.587479
      4 H1          1.5700    4.3570    5.2720 hc        1 MOL      0.070071
      5 H2          0.1560    5.2620    5.8630 hc        1 MOL      0.070071
      6 H3          0.1710    3.4820    5.9380 hc        1 MOL      0.070071
      7 N1         -1.3680    3.8970    3.8090 n         1 MOL     -0.570338
      8 C3         -2.1610    3.6330    2.5460 c3        1 MOL     -0.045111
      9 C4         -2.4140    4.8720    1.6830 c         1 MOL      0.688698
     10 O2         -2.9280    5.9120    2.1520 o         1 MOL     -0.588767
     11 C5         -3.5550    3.1050    2.8230 c3        1 MOL     -0.196831
     12 C6         -4.1850    2.2770    1.6900 c         1 MOL      0.747397
     13 O3         -5.2620    1.7100    2.0250 o         1 MOL     -0.691766
     14 O4         -3.7110    2.1650    0.5760 o         1 MOL     -0.691766
     15 H4         -1.8310    3.7800    4.6980 hn        1 MOL      0.309619
     16 H5         -1.6550    2.8410    1.9970 h1        1 MOL      0.205364
     17 H6         -4.1720    3.9520    3.1100 hc        1 MOL      0.040967
     18 H7         -3.4140    2.5340    3.7430 hc        1 MOL      0.040967
     19 N2         -2.2990    4.7170    0.3530 n         1 MOL     -0.584982
     20 C7         -2.5840    5.6940   -0.6980 c3        1 MOL      0.301343
     21 C8         -3.5570    5.2420   -1.7760 c         1 MOL      0.573742
     22 O5         -3.5880    5.8280   -2.8450 o         1 MOL     -0.564942
     23 C9         -1.2480    6.3340   -1.0870 c3        1 MOL     -0.258381
     24 H8         -2.1660    3.7590    0.0480 hn        1 MOL      0.303819
     25 H9         -3.2520    6.3600   -0.1640 h1        1 MOL     -0.007637
     26 H10        -0.4660    5.6200   -1.3790 hc        1 MOL      0.064886
     27 H11        -1.3930    6.9200   -1.9870 hc        1 MOL      0.064886
     28 H12        -0.8730    6.9970   -0.3120 hc        1 MOL      0.064886
     29 N3         -4.2430    4.0530   -1.6110 n         1 MOL     -0.649341
     30 C10        -5.0520    3.4390   -2.7400 c3        1 MOL      0.221199
     31 C11        -6.1820    2.5330   -2.2090 c         1 MOL      0.323462
     32 O6         -7.1500    2.3190   -2.8830 o         1 MOL     -0.540724
     33 C12        -4.1560    2.5350   -3.6310 c3        1 MOL     -0.189065
     34 C13        -3.4360    1.4770   -2.8180 c         1 MOL      0.838005
     35 O7         -2.1940    1.3000   -2.8590 o         1 MOL     -0.796984
     36 O8         -3.9780    0.6960   -2.0550 o         1 MOL     -0.796984
     37 H13        -4.0950    3.4750   -0.7920 hn        1 MOL      0.369819
     38 H14        -5.5440    4.2000   -3.3480 h1        1 MOL      0.058591
     39 H15        -3.5090    3.1000   -4.2930 hc        1 MOL      0.042813
     40 H16        -4.8240    2.0590   -4.3510 hc        1 MOL      0.042813
     41 N4         -6.1500    2.0910   -0.9560 n         1 MOL     -0.120224
     42 C14        -7.2720    1.3280   -0.3830 c3        1 MOL     -0.283752
     43 C15        -7.4220   -0.1470   -0.8910 c         1 MOL      0.519818
     44 O9         -8.4660   -0.7020   -0.7620 o         1 MOL     -0.593440
     45 H17        -5.4000    2.3830   -0.3500 hn        1 MOL      0.129078
     46 H18        -8.2130    1.8520   -0.5330 h1        1 MOL      0.132933
     47 H19        -7.1280    1.2370    0.6890 h1        1 MOL      0.132933
     48 N5         -6.3590   -0.7460   -1.4060 n         1 MOL     -0.216998
     49 C16        -6.3910   -2.0650   -2.0300 c3        1 MOL     -0.028169
     50 C17        -6.4110   -3.2100   -1.0320 c         1 MOL      0.482765
     51 O10        -6.5940   -4.3310   -1.5400 o         1 MOL     -0.579161
     52 C18        -5.2010   -2.1940   -3.0640 c3        1 MOL     -0.083135
     53 C19        -3.8110   -2.1940   -2.3990 c         1 MOL      0.584789
     54 N6         -2.7620   -2.3720   -3.2260 n         1 MOL     -0.726235
     55 O11        -3.5650   -2.1530   -1.2070 o         1 MOL     -0.436961
     56 H20        -5.5390   -0.1920   -1.6430 hn        1 MOL      0.269246
     57 H21        -7.3660   -2.1300   -2.5000 h1        1 MOL      0.077689
     58 H22        -5.2900   -1.3110   -3.6910 hc        1 MOL      0.029340
     59 H23        -5.3200   -3.0680   -3.7070 hc        1 MOL      0.029340
     60 H24        -2.9530   -2.1200   -4.1840 hn        1 MOL      0.334324
     61 H25        -1.8130   -2.4650   -2.8770 hn        1 MOL      0.334324
     62 N7         -6.0440   -3.0110    0.2240 n         1 MOL     -0.184329
     63 C20        -6.0710   -3.9390    1.2980 c3        1 MOL     -0.226489
     64 C21        -4.7770   -4.5950    1.8560 c         1 MOL      0.432273
     65 O12        -4.8380   -5.4030    2.7960 o         1 MOL     -0.570003
     66 H26        -5.7720   -2.0790    0.5280 hn        1 MOL      0.185140
     67 H27        -6.9080   -4.6160    1.1570 h1        1 MOL      0.103317
     68 H28        -6.3760   -3.4340    2.2130 h1        1 MOL      0.103317
     69 N8         -3.7150   -4.2050    1.2210 n         1 MOL     -0.001714
     70 C22        -2.3240   -4.6900    1.4100 c3        1 MOL     -0.260110
     71 C23        -1.3380   -3.5030    1.5200 c         1 MOL      0.476792
     72 O13        -1.4930   -2.4470    0.8860 o         1 MOL     -0.596945
     73 C24        -1.9510   -5.6520    0.3150 c3        1 MOL      0.496035
     74 C25        -2.8640   -6.8640   -0.0090 c3        1 MOL     -0.461965
     75 O14        -1.8900   -4.8640   -0.8340 oh        1 MOL     -0.584271
     76 H29        -3.7610   -3.5240    0.4750 hn        1 MOL      0.122864
     77 H30        -2.4350   -5.2220    2.3590 h1        1 MOL      0.075552
     78 H31        -0.9780   -6.1160    0.4450 h1        1 MOL     -0.046174
     79 H32        -1.3240   -4.1150   -0.6360 ho        1 MOL      0.367821
     80 H33        -2.4650   -7.3440   -0.8920 hc        1 MOL      0.123955
     81 H34        -2.9190   -7.5340    0.8530 hc        1 MOL      0.123955
     82 H35        -3.8740   -6.5560   -0.2790 hc        1 MOL      0.123955
     83 N9         -0.1870   -3.7580    2.2100 n         1 MOL     -0.380611
     84 C26         1.0250   -3.0020    2.1070 c3        1 MOL      0.040064
     85 C27         1.5990   -3.1460    0.7180 c         1 MOL      0.403245
     86 O15         1.7710   -4.2570    0.2580 o         1 MOL     -0.552284
     87 C28         2.1440   -3.4220    3.1310 c3        1 MOL     -0.003211
     88 C29         1.5930   -3.4550    4.6110 c3        1 MOL      0.162963
     89 C30         3.4420   -2.6250    2.8570 c3        1 MOL     -0.092633
     90 C31         1.5880   -2.1260    5.2870 c3        1 MOL     -0.111256
     91 H36        -0.1670   -4.6500    2.6810 hn        1 MOL      0.264311
     92 H37         0.8390   -1.9520    2.3330 h1        1 MOL      0.162430
     93 H38         2.2250   -4.5020    2.9650 hc        1 MOL     -0.007731
     94 H39         2.1230   -4.1730    5.2420 hc        1 MOL     -0.046859
     95 H40         0.5970   -3.8660    4.5180 hc        1 MOL     -0.046859
     96 H41         3.8310   -2.8300    1.8600 hc        1 MOL      0.020288
     97 H42         3.3690   -1.5540    3.0530 hc        1 MOL      0.020288
     98 H43         4.2000   -3.0310    3.5380 hc        1 MOL      0.020288
     99 H44         1.1180   -2.1190    6.2720 hc        1 MOL      0.012167
    100 H45         2.6290   -1.8270    5.3100 hc        1 MOL      0.012167
    101 H46         0.9460   -1.4850    4.6710 hc        1 MOL      0.012167
    102 N10         1.8240   -2.0090    0.0920 n         1 MOL      0.008355
    103 C32         2.6220   -1.9190   -1.1270 c3        1 MOL      0.026441
    104 C33         4.0680   -1.4820   -0.7100 c         1 MOL      0.490824
    105 O16         4.2330   -0.7650    0.3030 o         1 MOL     -0.418629
    106 C34         1.9420   -1.0360   -2.2440 c3        1 MOL     -0.279596
    107 C35         0.4660   -1.5640   -2.4760 c         1 MOL      0.727489
    108 O17        -0.5300   -1.3260   -1.6990 o         1 MOL     -0.646482
    109 O18         0.3100   -2.1660   -3.5540 o         1 MOL     -0.646482
    110 H47         1.5000   -1.1150    0.4560 hn        1 MOL     -0.023930
    111 H48         2.6960   -2.9500   -1.4900 h1        1 MOL      0.031578
    112 H49         2.5290   -1.0750   -3.1620 hc        1 MOL      0.078719
    113 H50         1.9590    0.0140   -1.9690 hc        1 MOL      0.078719
    114 N11         5.0360   -1.7360   -1.5940 n         1 MOL     -0.598920
    115 C36         6.4480   -1.4780   -1.3150 c3        1 MOL      0.333614
    116 C37         6.7290   -0.0120   -1.0670 c         1 MOL      0.369906
    117 O19         7.3680    0.2780   -0.0800 o         1 MOL     -0.459831
    118 C38         7.3750   -2.0770   -2.3970 c3        1 MOL     -0.307027
    119 C39         8.8270   -1.7350   -2.1810 ca        1 MOL      0.176977
    120 C40         9.4010   -0.7970   -3.1060 ca        1 MOL     -0.226698
    121 C41         9.6320   -2.2610   -1.1760 ca        1 MOL     -0.226698
    122 C42        10.7050   -0.3890   -2.9500 ca        1 MOL     -0.063784
    123 C43        10.9510   -1.8720   -1.0290 ca        1 MOL     -0.063784
    124 C44        11.5160   -0.9010   -1.9070 ca        1 MOL     -0.149904
    125 H51         4.7460   -2.3410   -2.3510 hn        1 MOL      0.327595
    126 H52         6.7280   -2.0150   -0.4090 h1        1 MOL      0.048317
    127 H53         7.0150   -1.6770   -3.3330 hc        1 MOL      0.089732
    128 H54         7.2160   -3.1530   -2.3780 hc        1 MOL      0.089732
    129 H55         8.7580   -0.3330   -3.8520 ha        1 MOL      0.133435
    130 H56         9.1740   -2.9540   -0.4890 ha        1 MOL      0.133435
    131 H57        11.1130    0.3420   -3.6390 ha        1 MOL      0.104177
    132 H58        11.5090   -2.2810   -0.1940 ha        1 MOL      0.104177
    133 H59        12.5490   -0.6270   -1.7790 ha        1 MOL      0.111824
    134 N12         6.1580    0.9820   -1.8200 n         1 MOL      0.006902
    135 C45         6.4570    2.3450   -1.4190 c3        1 MOL     -0.081544
    136 C46         5.8230    2.7400   -0.0770 c         1 MOL      0.394269
    137 O20         6.3920    3.5300    0.7220 o         1 MOL     -0.526833
    138 C47         5.9040    3.2570   -2.5470 c3        1 MOL     -0.034836
    139 C48         5.7650    2.3220   -3.7460 c3        1 MOL     -0.028725
    140 C49         5.5480    0.9380   -3.1110 c3        1 MOL     -0.111875
    141 H60         7.5430    2.3490   -1.3320 h1        1 MOL      0.076550
    142 H61         4.9140    3.6250   -2.2710 hc        1 MOL      0.046843
    143 H62         6.5380    4.1220   -2.7200 hc        1 MOL      0.046843
    144 H63         4.9200    2.6290   -4.3600 hc        1 MOL      0.032428
    145 H64         6.6160    2.3860   -4.4200 hc        1 MOL      0.032428
    146 H65         4.4910    0.6780   -3.0470 h1        1 MOL      0.052248
    147 H66         5.9580    0.1470   -3.7350 h1        1 MOL      0.052248
    148 N13         4.7820    2.0300    0.3940 n         1 MOL     -0.137992
    149 C50         4.0750    2.2550    1.6490 c3        1 MOL     -0.196177
    150 C51         4.9950    1.6580    2.8180 c         1 MOL      0.462685
    151 O21         4.9550    2.0910    3.9490 o         1 MOL     -0.577391
    152 C52         2.6980    1.7230    1.7150 c3        1 MOL      0.141054
    153 C53         1.7710    2.0330    0.5410 c3        1 MOL     -0.241407
    154 C54         0.3760    1.4150    0.7090 c         1 MOL      0.718586
    155 O22        -0.6260    1.9930    0.2530 o         1 MOL     -0.759056
    156 O23         0.1900    0.3030    1.2290 o         1 MOL     -0.759056
    157 H67         4.6040    1.0990    0.0330 hn        1 MOL      0.107171
    158 H68         3.9920    3.3290    1.8460 h1        1 MOL      0.140650
    159 H69         2.1990    2.1020    2.6060 hc        1 MOL      0.009852
    160 H70         2.7120    0.6510    1.8850 hc        1 MOL      0.009852
    161 H71         2.1950    1.6240   -0.3730 hc        1 MOL      0.093179
    162 H72         1.6230    3.1140    0.4780 hc        1 MOL      0.093179
    163 N14         5.7680    0.6190    2.5460 n         1 MOL      0.061694
    164 C55         6.7580   -0.1270    3.3660 c3        1 MOL     -0.204285
    165 H73         7.7660    0.1510    3.0600 h1        1 MOL      0.077124
    166 H74         6.6170    0.1170    4.4190 h1        1 MOL      0.077124
    167 H75         6.6180   -1.1990    3.2200 h1        1 MOL      0.077124
    168 H76         5.7680    0.3930    1.5650 hn        1 MOL     -0.013486
    169 Ca1        -2.1920   -0.0900   -0.2990 Ca        1 MOL      1.724050
    170 O24        -1.9970   -0.2050    2.5300 oh        1 MOL     -0.810253
    171 H77        -1.0860   -0.1380    2.2560 ho        1 MOL      0.394416
    172 H78        -2.0250    0.2160    3.3880 ho        1 MOL      0.394416
    173 O25        -4.4230   -0.6690    1.1450 oh        1 MOL     -0.810253
    174 H79        -4.7870    0.2130    1.2510 ho        1 MOL      0.394416
    175 H80        -3.9100   -0.8120    1.9390 ho        1 MOL      0.394416
@<TRIPOS>BOND
     1    1    2 1   
     2    1    4 1   
     3    1    5 1   
     4    1    6 1   
     5    2    3 2   
     6    2    7 1   
     7    7    8 1   
     8    7   15 1   
     9    8    9 1   
    10    8   11 1   
    11    8   16 1   
    12    9   10 2   
    13    9   19 1   
    14   11   12 1   
    15   11   17 1   
    16   11   18 1   
    17   12   13 1   
    18   12   14 1   
    19   19   20 1   
    20   19   24 1   
    21   20   21 1   
    22   20   23 1   
    23   20   25 1   
    24   21   22 2   
    25   21   29 1   
    26   23   26 1   
    27   23   27 1   
    28   23   28 1   
    29   29   30 1   
    30   29   37 1   
    31   30   31 1   
    32   30   33 1   
    33   30   38 1   
    34   31   32 2   
    35   31   41 1   
    36   33   34 1   
    37   33   39 1   
    38   33   40 1   
    39   34   35 1   
    40   34   36 1   
    41   41   42 1   
    42   41   45 1   
    43   42   43 1   
    44   42   46 1   
    45   42   47 1   
    46   43   44 2   
    47   43   48 1   
    48   48   49 1   
    49   48   56 1   
    50   49   50 1   
    51   49   52 1   
    52   49   57 1   
    53   50   51 2   
    54   50   62 1   
    55   52   53 1   
    56   52   58 1   
    57   52   59 1   
    58   53   54 1   
    59   53   55 2   
    60   54   60 1   
    61   54   61 1   
    62   62   63 1   
    63   62   66 1   
    64   63   64 1   
    65   63   67 1   
    66   63   68 1   
    67   64   65 2   
    68   64   69 1   
    69   69   70 1   
    70   69   76 1   
    71   70   71 1   
    72   70   73 1   
    73   70   77 1   
    74   71   72 2   
    75   71   83 1   
    76   73   74 1   
    77   73   75 1   
    78   73   78 1   
    79   74   80 1   
    80   74   81 1   
    81   74   82 1   
    82   75   79 1   
    83   83   84 1   
    84   83   91 1   
    85   84   85 1   
    86   84   87 1   
    87   84   92 1   
    88   85   86 2   
    89   85  102 1   
    90   87   88 1   
    91   87   89 1   
    92   87   93 1   
    93   88   90 1   
    94   88   94 1   
    95   88   95 1   
    96   89   96 1   
    97   89   97 1   
    98   89   98 1   
    99   90   99 1   
   100   90  100 1   
   101   90  101 1   
   102  102  103 1   
   103  102  110 1   
   104  103  104 1   
   105  103  106 1   
   106  103  111 1   
   107  104  105 2   
   108  104  114 1   
   109  106  107 1   
   110  106  112 1   
   111  106  113 1   
   112  107  108 1   
   113  107  109 1   
   114  114  115 1   
   115  114  125 1   
   116  115  116 1   
   117  115  118 1   
   118  115  126 1   
   119  116  117 2   
   120  116  134 1   
   121  118  119 1   
   122  118  127 1   
   123  118  128 1   
   124  119  120 ar  
   125  119  121 ar  
   126  120  122 ar  
   127  120  129 1   
   128  121  123 ar  
   129  121  130 1   
   130  122  124 ar  
   131  122  131 1   
   132  123  124 ar  
   133  123  132 1   
   134  124  133 1   
   135  134  135 1   
   136  134  140 1   
   137  135  136 1   
   138  135  138 1   
   139  135  141 1   
   140  136  137 2   
   141  136  148 1   
   142  138  139 1   
   143  138  142 1   
   144  138  143 1   
   145  139  140 1   
   146  139  144 1   
   147  139  145 1   
   148  140  146 1   
   149  140  147 1   
   150  148  149 1   
   151  148  157 1   
   152  149  150 1   
   153  149  152 1   
   154  149  158 1   
   155  150  151 2   
   156  150  163 1   
   157  152  153 1   
   158  152  159 1   
   159  152  160 1   
   160  153  154 1   
   161  153  161 1   
   162  153  162 1   
   163  154  155 1   
   164  154  156 1   
   165  163  164 1   
   166  163  168 1   
   167  164  165 1   
   168  164  166 1   
   169  164  167 1   
   170  170  171 1   
   171  170  172 1   
   172  173  174 1   
   173  173  175 1   
@<TRIPOS>SUBSTRUCTURE
     1 MOL         1 TEMP              0 ****  ****    0 ROOT
