@<TRIPOS>MOLECULE
MOL
  183   181     1     0     0
SMALL
resp


@<TRIPOS>ATOM
      1 C1         -0.7780    1.8920    6.3280 c3        1 MOL     -0.381976
      2 C2         -0.9220    1.7930    4.8380 c         1 MOL      0.763493
      3 O1         -0.0650    2.1520    4.0690 o         1 MOL     -0.584107
      4 H1         -1.6840    1.5170    6.8060 hc        1 MOL      0.085855
      5 H2          0.0750    1.2960    6.6510 hc        1 MOL      0.085855
      6 H3         -0.6230    2.9330    6.6100 hc        1 MOL      0.085855
      7 N1         -2.1240    1.4350    4.4310 n         1 MOL     -0.640480
      8 C3         -2.5770    1.4770    2.9790 c3        1 MOL      0.402931
      9 C4         -2.7050    2.9550    2.5840 c         1 MOL      0.399492
     10 O2         -3.3860    3.7110    3.3330 o         1 MOL     -0.587964
     11 C5         -3.8930    0.7240    2.8600 c3        1 MOL     -0.441178
     12 C6         -4.5620    0.5730    1.4490 c         1 MOL      0.909490
     13 O3         -5.6910    0.1180    1.3570 o         1 MOL     -0.674889
     14 O4         -3.8920    0.9120    0.4120 o         1 MOL     -0.674889
     15 H4         -2.8460    1.1500    5.0700 hn        1 MOL      0.321188
     16 H5         -1.8570    0.9250    2.3700 h1        1 MOL     -0.056175
     17 H6         -4.5430    1.2680    3.5480 hc        1 MOL      0.067521
     18 H7         -3.6890   -0.2560    3.2990 hc        1 MOL      0.067521
     19 N2         -2.0950    3.3280    1.5160 n         1 MOL     -0.021229
     20 C7         -2.2700    4.7070    0.9980 c3        1 MOL     -0.256310
     21 C8         -3.2580    4.8480   -0.2070 c         1 MOL      0.674081
     22 O5         -3.7770    5.9010   -0.4070 o         1 MOL     -0.603292
     23 C9         -0.8550    5.4320    0.7600 c3        1 MOL      0.500878
     24 C10        -0.1380    5.7370    2.0940 c3        1 MOL     -0.330466
     25 C11        -1.0200    6.7900    0.0740 c3        1 MOL     -0.336235
     26 C12         1.3790    6.0630    2.2310 c3        1 MOL      0.065721
     27 H8         -1.4570    2.7390    1.0080 hn        1 MOL      0.004831
     28 H9         -2.7170    5.2630    1.8330 h1        1 MOL      0.079897
     29 H10        -0.1960    4.8120    0.1540 hc        1 MOL     -0.079298
     30 H11        -0.1970    4.8190    2.6800 hc        1 MOL      0.074008
     31 H12        -0.6570    6.5740    2.5680 hc        1 MOL      0.074008
     32 H13        -0.0510    7.3080    0.1200 hc        1 MOL      0.063109
     33 H14        -1.2320    6.6200   -0.9810 hc        1 MOL      0.063109
     34 H15        -1.6970    7.4590    0.6010 hc        1 MOL      0.063109
     35 H16         1.6420    6.8930    1.5860 hc        1 MOL     -0.013651
     36 H17         1.7440    6.3400    3.2210 hc        1 MOL     -0.013651
     37 H18         1.9610    5.2050    1.8890 hc        1 MOL     -0.013651
     38 N3         -3.6840    3.7960   -0.9460 n         1 MOL     -0.398480
     39 C13        -4.6270    3.8700   -2.1730 c3        1 MOL     -0.077689
     40 C14        -6.0130    3.2770   -2.0070 c         1 MOL      0.467329
     41 O6         -6.9290    3.5220   -2.8270 o         1 MOL     -0.543717
     42 C15        -4.0530    3.3040   -3.4750 c3        1 MOL      0.038612
     43 C16        -3.4060    1.9140   -3.4620 c         1 MOL      0.784387
     44 O7         -3.6120    1.2210   -2.4600 o         1 MOL     -0.730382
     45 O8         -2.7130    1.5770   -4.4040 o         1 MOL     -0.730382
     46 H19        -3.2950    2.9010   -0.6870 hn        1 MOL      0.168583
     47 H20        -4.7110    4.9540   -2.3110 h1        1 MOL      0.099573
     48 H21        -3.2830    3.9850   -3.8470 hc        1 MOL     -0.017423
     49 H22        -4.8360    3.3850   -4.2300 hc        1 MOL     -0.017423
     50 N4         -6.2130    2.5370   -0.8870 n         1 MOL     -0.078503
     51 C17        -7.5410    2.1050   -0.5100 c3        1 MOL     -0.224895
     52 C18        -7.9470    0.7250   -1.0840 c         1 MOL      0.707210
     53 O9         -8.8260    0.6940   -1.8620 o         1 MOL     -0.581423
     54 H23        -5.4390    2.0820   -0.4150 hn        1 MOL      0.084962
     55 H24        -8.2920    2.8780   -0.7270 h1        1 MOL      0.068190
     56 H25        -7.5600    2.0250    0.5760 h1        1 MOL      0.068190
     57 N5         -7.2870   -0.4380   -0.7370 n         1 MOL     -0.510007
     58 C19        -7.5840   -1.7690   -1.2080 c3        1 MOL      0.074045
     59 C20        -7.6400   -2.9070   -0.1820 c         1 MOL      0.491010
     60 O10        -8.2000   -3.9510   -0.4300 o         1 MOL     -0.544375
     61 C21        -6.5540   -2.0980   -2.2960 c3        1 MOL     -0.149388
     62 C22        -5.0830   -1.8900   -1.9890 c         1 MOL      0.815516
     63 O11        -4.2770   -1.8630   -2.9630 o         1 MOL     -0.780629
     64 O12        -4.6170   -1.8390   -0.8080 o         1 MOL     -0.780629
     65 H26        -6.5540   -0.2450   -0.0780 hn        1 MOL      0.214333
     66 H27        -8.5680   -1.8380   -1.6820 h1        1 MOL      0.043247
     67 H28        -6.7530   -1.4230   -3.1430 hc        1 MOL      0.049452
     68 H29        -6.6120   -3.1240   -2.6660 hc        1 MOL      0.049452
     69 N6         -7.0010   -2.6970    1.0300 n         1 MOL     -0.359490
     70 C23        -6.7940   -3.7610    1.9530 c3        1 MOL      0.111341
     71 C24        -5.4330   -4.5150    1.9870 c         1 MOL      0.454373
     72 O13        -5.3110   -5.6620    2.3750 o         1 MOL     -0.593377
     73 H30        -6.6970   -1.7600    1.2290 hn        1 MOL      0.232569
     74 H31        -7.6360   -4.4400    2.0370 h1        1 MOL      0.010932
     75 H32        -6.8000   -3.3520    2.9670 h1        1 MOL      0.010932
     76 N7         -4.4040   -3.8740    1.4600 n         1 MOL     -0.121405
     77 C25        -3.0150   -4.3660    1.5250 c3        1 MOL     -0.152610
     78 C26        -2.0230   -3.1790    1.5530 c         1 MOL      0.446913
     79 O14        -2.2980   -1.9850    1.2870 o         1 MOL     -0.587335
     80 C27        -2.7510   -5.4030    0.3650 c3        1 MOL      0.096656
     81 C28        -2.9360   -4.8770   -1.0450 c3        1 MOL     -0.068151
     82 C29        -1.7630   -4.1180   -1.5910 c         1 MOL      0.503305
     83 N8         -0.8520   -4.8330   -2.2810 n         1 MOL     -0.727808
     84 O15        -1.5440   -2.9120   -1.3930 o         1 MOL     -0.465420
     85 H33        -4.5090   -2.9890    0.9950 hn        1 MOL      0.169770
     86 H34        -2.7860   -4.8800    2.4500 h1        1 MOL      0.081192
     87 H35        -3.4370   -6.2400    0.4570 hc        1 MOL     -0.002924
     88 H36        -1.8020   -5.9330    0.3620 hc        1 MOL     -0.002924
     89 H37        -3.8600   -4.3280   -1.2160 hc        1 MOL      0.036507
     90 H38        -3.0520   -5.7970   -1.6310 hc        1 MOL      0.036507
     91 H39        -0.9670   -5.8320   -2.3540 hn        1 MOL      0.333630
     92 H40        -0.1030   -4.3350   -2.7480 hn        1 MOL      0.333630
     93 N9         -0.7740   -3.5380    1.6300 n         1 MOL     -0.271772
     94 C30         0.3850   -2.5910    1.8710 c3        1 MOL     -0.048441
     95 C31         1.5410   -3.0390    0.9330 c         1 MOL      0.415505
     96 O16         2.1300   -4.0760    1.1670 o         1 MOL     -0.551505
     97 C32         0.7340   -2.6150    3.3250 c3        1 MOL      0.204584
     98 C33         2.1150   -2.0790    3.7020 c3        1 MOL     -0.157437
     99 C34        -0.4170   -2.0240    4.2100 c3        1 MOL     -0.157437
    100 H41        -0.5050   -4.5070    1.7390 hn        1 MOL      0.241715
    101 H42         0.1100   -1.5690    1.6360 h1        1 MOL      0.183856
    102 H43         0.8030   -3.6680    3.5890 hc        1 MOL     -0.050794
    103 H44         2.3380   -2.2740    4.7500 hc        1 MOL      0.026774
    104 H45         2.8780   -2.6390    3.1550 hc        1 MOL      0.026774
    105 H46         2.1920   -1.0160    3.4750 hc        1 MOL      0.026774
    106 H47        -1.1940   -2.7760    4.2820 hc        1 MOL      0.026774
    107 H48        -0.1980   -2.0000    5.2770 hc        1 MOL      0.026774
    108 H49        -0.6280   -1.0280    3.8080 hc        1 MOL      0.026774
    109 N10         1.8550   -2.3080   -0.1550 n         1 MOL     -0.121938
    110 C35         3.0090   -2.5320   -1.0310 c3        1 MOL     -0.012842
    111 C36         4.3540   -2.3020   -0.2220 c         1 MOL      0.405008
    112 O17         4.2990   -1.8390    0.8660 o         1 MOL     -0.304379
    113 C37         2.9070   -1.5360   -2.2530 c3        1 MOL     -0.230496
    114 C38         2.2300   -2.1650   -3.4410 c         1 MOL      0.709968
    115 N11         1.0010   -2.6200   -3.3270 n         1 MOL     -0.737862
    116 O18         2.7060   -2.3930   -4.4750 o         1 MOL     -0.574137
    117 H50         1.3370   -1.4450   -0.2880 hn        1 MOL     -0.073657
    118 H51         2.9930   -3.5060   -1.5090 h1        1 MOL      0.064435
    119 H52         3.9190   -1.3030   -2.5800 hc        1 MOL      0.084853
    120 H53         2.4120   -0.6220   -1.9200 hc        1 MOL      0.084853
    121 H54         0.3880   -2.3700   -2.5600 hn        1 MOL      0.335470
    122 H55         0.5430   -2.7240   -4.2170 hn        1 MOL      0.335470
    123 N12         5.5340   -2.4140   -0.8410 n         1 MOL     -0.502593
    124 C39         6.8340   -2.0330   -0.2770 c3        1 MOL      0.113214
    125 C40         6.9490   -0.5000   -0.2670 c         1 MOL      0.685462
    126 O19         7.3190    0.0990    0.7340 o         1 MOL     -0.532854
    127 C41         8.0220   -2.5930   -1.1070 c3        1 MOL     -0.186025
    128 C42         9.3860   -2.0190   -0.7790 ca        1 MOL      0.249363
    129 C43         9.9530   -2.3120    0.4620 ca        1 MOL     -0.398717
    130 C44        10.0070   -1.1520   -1.7370 ca        1 MOL     -0.398717
    131 C45        11.2410   -1.6850    0.7470 ca        1 MOL     -0.032908
    132 C46        11.1870   -0.5200   -1.3970 ca        1 MOL     -0.032908
    133 C47        11.8480   -0.8500   -0.2130 ca        1 MOL      0.123343
    134 O20        12.9710   -0.1310    0.0490 oh        1 MOL     -0.481469
    135 H56         5.4310   -2.7780   -1.7800 hn        1 MOL      0.291017
    136 H57         6.9380   -2.4820    0.7120 h1        1 MOL      0.084143
    137 H58         7.8010   -2.5400   -2.1780 hc        1 MOL      0.048281
    138 H59         8.1110   -3.6640   -0.9190 hc        1 MOL      0.048281
    139 H60         9.4390   -2.8570    1.2400 ha        1 MOL      0.184888
    140 H61         9.3800   -0.8030   -2.5440 ha        1 MOL      0.184888
    141 H62        11.7880   -1.8090    1.6710 ha        1 MOL      0.103692
    142 H63        11.5590    0.2400   -2.0720 ha        1 MOL      0.103692
    143 H64        13.2170    0.3990   -0.7070 ho        1 MOL      0.365469
    144 N13         6.4720    0.1930   -1.3100 n         1 MOL     -0.474730
    145 C48         6.3990    1.6640   -1.1800 c3        1 MOL     -0.125068
    146 C49         5.5710    2.1760    0.0250 c         1 MOL      0.420241
    147 O21         5.8330    3.2020    0.6730 o         1 MOL     -0.513405
    148 C50         5.9930    2.4280   -2.4910 c3        1 MOL     -0.030819
    149 C51         4.5120    2.2120   -2.8830 c3        1 MOL     -0.074395
    150 C52         4.1210    3.0620   -4.0860 c         1 MOL      0.737181
    151 O22         3.9130    4.2820   -4.0410 o         1 MOL     -0.726924
    152 O23         4.1500    2.5280   -5.2080 o         1 MOL     -0.726924
    153 H65         6.3380   -0.2740   -2.1930 hn        1 MOL      0.316849
    154 H66         7.3850    2.0780   -0.9570 h1        1 MOL      0.082097
    155 H67         6.4910    2.1100   -3.4020 hc        1 MOL      0.035633
    156 H68         6.1920    3.5000   -2.4270 hc        1 MOL      0.035633
    157 H69         3.8540    2.3330   -2.0180 hc        1 MOL     -0.053766
    158 H70         4.3710    1.1480   -3.1000 hc        1 MOL     -0.053766
    159 N14         4.4810    1.4440    0.3460 n         1 MOL     -0.050059
    160 C53         3.4710    1.7540    1.4600 c3        1 MOL     -0.122807
    161 C54         4.2170    1.5080    2.7720 c         1 MOL      0.385482
    162 O24         4.1010    2.2360    3.7810 o         1 MOL     -0.540603
    163 C55         2.2010    0.9640    1.2660 c3        1 MOL      0.188462
    164 C56         1.2100    1.7370    0.4070 c3        1 MOL      0.154510
    165 C57         0.0220    0.9800   -0.1860 c         1 MOL      0.609827
    166 O25        -1.0280    1.5590   -0.5910 o         1 MOL     -0.629658
    167 O26         0.0730   -0.2410   -0.3390 o         1 MOL     -0.629658
    168 H71         4.4670    0.5230   -0.0760 hn        1 MOL      0.174820
    169 H72         3.2250    2.8170    1.4780 h1        1 MOL      0.119324
    170 H73         1.6830    0.9450    2.2280 hc        1 MOL     -0.021103
    171 H74         2.4630    0.0550    0.7190 hc        1 MOL     -0.021103
    172 H75         1.8220    2.1630   -0.4020 hc        1 MOL     -0.024607
    173 H76         0.7730    2.5810    0.9340 hc        1 MOL     -0.024607
    174 N15         5.0840    0.4730    2.7560 n         1 MOL      0.047882
    175 C58         5.7720    0.1070    3.9800 c3        1 MOL     -0.204071
    176 H77         6.8480    0.1240    3.8090 h1        1 MOL      0.071058
    177 H78         5.5180    0.8180    4.7660 h1        1 MOL      0.071058
    178 H79         5.4680   -0.8950    4.2820 h1        1 MOL      0.071058
    179 H80         5.0450   -0.1140    1.9300 hn        1 MOL     -0.077074
    180 Ca1        -2.5420   -0.5430   -1.1460 Ca        1 MOL      1.729217
    181 O27        -1.1150   -0.6360   -3.7690 oh        1 MOL     -0.863389
    182 H81        -0.8140   -1.0540   -4.5760 ho        1 MOL      0.403465
    183 H82        -1.4900    0.2020   -4.0580 ho        1 MOL      0.403465
@<TRIPOS>BOND
     1    1    2 1   
     2    1    4 1   
     3    1    5 1   
     4    1    6 1   
     5    2    3 2   
     6    2    7 1   
     7    7    8 1   
     8    7   15 1   
     9    8    9 1   
    10    8   11 1   
    11    8   16 1   
    12    9   10 2   
    13    9   19 1   
    14   11   12 1   
    15   11   17 1   
    16   11   18 1   
    17   12   13 1   
    18   12   14 1   
    19   19   20 1   
    20   19   27 1   
    21   20   21 1   
    22   20   23 1   
    23   20   28 1   
    24   21   22 2   
    25   21   38 1   
    26   23   24 1   
    27   23   25 1   
    28   23   29 1   
    29   24   26 1   
    30   24   30 1   
    31   24   31 1   
    32   25   32 1   
    33   25   33 1   
    34   25   34 1   
    35   26   35 1   
    36   26   36 1   
    37   26   37 1   
    38   38   39 1   
    39   38   46 1   
    40   39   40 1   
    41   39   42 1   
    42   39   47 1   
    43   40   41 2   
    44   40   50 1   
    45   42   43 1   
    46   42   48 1   
    47   42   49 1   
    48   43   44 1   
    49   43   45 1   
    50   50   51 1   
    51   50   54 1   
    52   51   52 1   
    53   51   55 1   
    54   51   56 1   
    55   52   53 2   
    56   52   57 1   
    57   57   58 1   
    58   57   65 1   
    59   58   59 1   
    60   58   61 1   
    61   58   66 1   
    62   59   60 2   
    63   59   69 1   
    64   61   62 1   
    65   61   67 1   
    66   61   68 1   
    67   62   63 1   
    68   62   64 1   
    69   69   70 1   
    70   69   73 1   
    71   70   71 1   
    72   70   74 1   
    73   70   75 1   
    74   71   72 2   
    75   71   76 1   
    76   76   77 1   
    77   76   85 1   
    78   77   78 1   
    79   77   80 1   
    80   77   86 1   
    81   78   79 2   
    82   78   93 1   
    83   80   81 1   
    84   80   87 1   
    85   80   88 1   
    86   81   82 1   
    87   81   89 1   
    88   81   90 1   
    89   82   83 1   
    90   82   84 2   
    91   83   91 1   
    92   83   92 1   
    93   93   94 1   
    94   93  100 1   
    95   94   95 1   
    96   94   97 1   
    97   94  101 1   
    98   95   96 2   
    99   95  109 1   
   100   97   98 1   
   101   97   99 1   
   102   97  102 1   
   103   98  103 1   
   104   98  104 1   
   105   98  105 1   
   106   99  106 1   
   107   99  107 1   
   108   99  108 1   
   109  109  110 1   
   110  109  117 1   
   111  110  111 1   
   112  110  113 1   
   113  110  118 1   
   114  111  112 2   
   115  111  123 1   
   116  113  114 1   
   117  113  119 1   
   118  113  120 1   
   119  114  115 1   
   120  114  116 2   
   121  115  121 1   
   122  115  122 1   
   123  123  124 1   
   124  123  135 1   
   125  124  125 1   
   126  124  127 1   
   127  124  136 1   
   128  125  126 2   
   129  125  144 1   
   130  127  128 1   
   131  127  137 1   
   132  127  138 1   
   133  128  129 ar  
   134  128  130 ar  
   135  129  131 ar  
   136  129  139 1   
   137  130  132 ar  
   138  130  140 1   
   139  131  133 ar  
   140  131  141 1   
   141  132  133 ar  
   142  132  142 1   
   143  133  134 1   
   144  134  143 1   
   145  144  145 1   
   146  144  153 1   
   147  145  146 1   
   148  145  148 1   
   149  145  154 1   
   150  146  147 2   
   151  146  159 1   
   152  148  149 1   
   153  148  155 1   
   154  148  156 1   
   155  149  150 1   
   156  149  157 1   
   157  149  158 1   
   158  150  151 1   
   159  150  152 1   
   160  159  160 1   
   161  159  168 1   
   162  160  161 1   
   163  160  163 1   
   164  160  169 1   
   165  161  162 2   
   166  161  174 1   
   167  163  164 1   
   168  163  170 1   
   169  163  171 1   
   170  164  165 1   
   171  164  172 1   
   172  164  173 1   
   173  165  166 1   
   174  165  167 1   
   175  174  175 1   
   176  174  179 1   
   177  175  176 1   
   178  175  177 1   
   179  175  178 1   
   180  181  182 1   
   181  181  183 1   
@<TRIPOS>SUBSTRUCTURE
     1 MOL         1 TEMP              0 ****  ****    0 ROOT
