@<TRIPOS>MOLECULE
MOL
  179   176     1     0     0
SMALL
resp


@<TRIPOS>ATOM
      1 C1          1.8590    2.7870    7.0110 c3        1 MOL     -0.360418
      2 C2          1.8410    2.2770    5.5810 c         1 MOL      0.721681
      3 O1          2.8550    1.7770    5.0870 o         1 MOL     -0.566303
      4 H1          0.8390    2.8460    7.3890 hc        1 MOL      0.089057
      5 H2          2.4380    2.1040    7.6340 hc        1 MOL      0.089057
      6 H3          2.3140    3.7780    7.0380 hc        1 MOL      0.089057
      7 N1          0.7150    2.5200    4.9050 n         1 MOL     -0.614888
      8 C3          0.5410    2.3190    3.4410 c3        1 MOL      0.214870
      9 C4          0.9900    3.5370    2.6320 c         1 MOL      0.556000
     10 O2          1.2220    4.6060    3.2230 o         1 MOL     -0.548687
     11 C5         -0.9050    1.9410    3.1140 c3        1 MOL     -0.255959
     12 C6         -1.0570    1.5220    1.6590 c         1 MOL      0.696647
     13 O3         -2.0190    1.8700    0.9770 o         1 MOL     -0.729243
     14 O4         -0.1390    0.8810    1.1440 o         1 MOL     -0.729243
     15 H4         -0.0100    2.9910    5.4150 hn        1 MOL      0.319676
     16 H5          1.2040    1.5650    3.0300 h1        1 MOL      0.039287
     17 H6         -1.4890    2.8320    3.3330 hc        1 MOL      0.049354
     18 H7         -1.0870    1.0560    3.7130 hc        1 MOL      0.049354
     19 N2          1.2020    3.3950    1.2920 n         1 MOL     -0.400356
     20 C7          1.6860    4.5570    0.4410 c3        1 MOL      0.026502
     21 C8          0.6980    5.3000   -0.4330 c         1 MOL      0.433573
     22 O5          0.7240    6.5170   -0.4560 o         1 MOL     -0.561868
     23 C9          2.9040    4.2010   -0.4390 c3        1 MOL      0.227029
     24 C10         3.7530    5.3980   -0.8880 c3        1 MOL     -0.240263
     25 C11         5.0080    4.9730   -1.7730 c3        1 MOL     -0.037958
     26 C12         5.7010    6.2670   -2.2530 c3        1 MOL      0.110466
     27 N3          6.7380    5.9630   -3.3060 n4        1 MOL     -0.392389
     28 H8          0.9910    2.5060    0.8450 hn        1 MOL      0.222921
     29 H9          2.0550    5.3080    1.1490 h1        1 MOL      0.071771
     30 H10         2.5810    3.6800   -1.3370 hc        1 MOL     -0.025846
     31 H11         3.4810    3.4520    0.1080 hc        1 MOL     -0.025846
     32 H12         4.1710    5.9010   -0.0130 hc        1 MOL      0.077216
     33 H13         3.0670    6.0490   -1.4310 hc        1 MOL      0.077216
     34 H14         4.6320    4.4790   -2.6580 hc        1 MOL      0.056827
     35 H15         5.7240    4.4240   -1.1660 hc        1 MOL      0.056827
     36 H16         6.1270    6.8150   -1.4160 hx        1 MOL      0.068941
     37 H17         4.9270    6.9010   -2.7120 hx        1 MOL      0.068941
     38 H18         6.9890    6.8290   -3.7570 hn        1 MOL      0.328693
     39 H19         7.5210    5.4170   -2.9880 hn        1 MOL      0.328693
     40 H20         6.2780    5.4190   -4.0130 hn        1 MOL      0.328693
     41 N4         -0.2260    4.6010   -1.1230 n         1 MOL     -0.234108
     42 C13        -1.3180    5.1700   -1.9230 c3        1 MOL     -0.004811
     43 C14        -2.6340    5.1860   -1.0570 c         1 MOL      0.392305
     44 O6         -3.6420    5.7490   -1.5260 o         1 MOL     -0.515234
     45 C15        -1.5100    4.4660   -3.2920 c3        1 MOL     -0.200775
     46 C16        -1.7780    2.9940   -3.1190 c         1 MOL      0.834990
     47 O7         -1.9070    2.4760   -2.0180 o         1 MOL     -0.763229
     48 O8         -1.7990    2.3250   -4.2220 o         1 MOL     -0.763229
     49 H21        -0.1390    3.5990   -1.2450 hn        1 MOL      0.186774
     50 H22        -0.9380    6.1620   -2.1700 h1        1 MOL      0.103019
     51 H23        -0.5720    4.6490   -3.8250 hc        1 MOL      0.060363
     52 H24        -2.2600    5.0690   -3.8050 hc        1 MOL      0.060363
     53 N5         -2.5910    4.6180    0.1860 n         1 MOL     -0.188516
     54 C17        -3.7330    4.6280    1.1350 c3        1 MOL     -0.208687
     55 C18        -4.9470    3.8150    0.6040 c         1 MOL      0.552434
     56 O9         -6.1150    3.9650    1.0940 o         1 MOL     -0.584635
     57 H25        -1.6970    4.2510    0.4850 hn        1 MOL      0.226990
     58 H26        -4.1050    5.5980    1.4860 h1        1 MOL      0.118611
     59 H27        -3.3280    4.0770    1.9820 h1        1 MOL      0.118611
     60 N6         -4.8180    2.9280   -0.4440 n         1 MOL     -0.318050
     61 C19        -5.9300    2.1520   -1.0220 c3        1 MOL     -0.091791
     62 C20        -6.5580    1.0010   -0.1690 c         1 MOL      0.445209
     63 O10        -7.4380    0.3090   -0.6890 o         1 MOL     -0.528943
     64 C21        -5.5330    1.6330   -2.4050 c3        1 MOL     -0.121929
     65 C22        -4.8040    0.3100   -2.4530 c         1 MOL      0.612668
     66 N7         -4.8620   -0.5470   -3.3950 n         1 MOL     -0.752161
     67 O11        -4.1460    0.0320   -1.4330 o         1 MOL     -0.611827
     68 H28        -3.8880    2.8620   -0.8280 hn        1 MOL      0.288083
     69 H29        -6.7520    2.8590   -1.1460 h1        1 MOL      0.152802
     70 H30        -4.8540    2.3230   -2.9100 hc        1 MOL      0.070130
     71 H31        -6.3910    1.5750   -3.0720 hc        1 MOL      0.070130
     72 H32        -5.3820   -0.2670   -4.2210 hn        1 MOL      0.367397
     73 H33        -4.4090   -1.4460   -3.3980 hn        1 MOL      0.367397
     74 N8         -6.2170    0.9330    1.0670 n         1 MOL     -0.237176
     75 C23        -6.6610   -0.0240    2.1020 c3        1 MOL     -0.081516
     76 C24        -5.9580   -1.3680    2.0180 c         1 MOL      0.431206
     77 O12        -6.3860   -2.2650    2.7120 o         1 MOL     -0.556996
     78 H34        -5.5570    1.5980    1.4330 hn        1 MOL      0.254962
     79 H35        -7.7550   -0.1140    2.0730 h1        1 MOL      0.097539
     80 H36        -6.5410    0.3240    3.1220 h1        1 MOL      0.097539
     81 N9         -4.9220   -1.4640    1.2570 n         1 MOL     -0.137081
     82 C25        -4.0700   -2.6590    1.0560 c3        1 MOL      0.476381
     83 C26        -2.5800   -2.2490    1.2440 c         1 MOL     -0.008432
     84 O13        -2.3590   -1.0720    1.0370 o         1 MOL     -0.350671
     85 C27        -4.3370   -3.2780   -0.3430 c3        1 MOL     -0.288005
     86 C28        -5.7340   -3.8460   -0.4740 ca        1 MOL      0.275544
     87 C29        -5.9610   -5.1630   -0.0390 ca        1 MOL     -0.342915
     88 C30        -6.6680   -3.1110   -1.1950 ca        1 MOL     -0.342915
     89 C31        -7.2280   -5.7520   -0.2800 ca        1 MOL     -0.086348
     90 C32        -7.9540   -3.6650   -1.3700 ca        1 MOL     -0.086348
     91 C33        -8.2410   -5.0170   -0.9650 ca        1 MOL      0.139801
     92 O14        -9.5000   -5.5500   -1.1020 oh        1 MOL     -0.464779
     93 H37        -4.4730   -0.6350    0.9190 hn        1 MOL      0.059758
     94 H38        -4.2700   -3.3840    1.8380 h1        1 MOL     -0.034397
     95 H39        -3.6180   -4.0570   -0.5970 hc        1 MOL      0.057559
     96 H40        -4.1780   -2.5110   -1.1080 hc        1 MOL      0.057559
     97 H41        -5.2080   -5.8000    0.3980 ha        1 MOL      0.170729
     98 H42        -6.4960   -2.1340   -1.6250 ha        1 MOL      0.170729
     99 H43        -7.3680   -6.6970    0.2230 ha        1 MOL      0.119122
    100 H44        -8.6720   -3.1500   -1.9880 ha        1 MOL      0.119122
    101 H45       -10.0890   -4.9760   -1.6030 ho        1 MOL      0.370962
    102 N10        -1.6890   -3.1850    1.5510 n         1 MOL     -0.270629
    103 C34        -0.2690   -2.8790    1.4220 c3        1 MOL      0.003700
    104 C35         0.4500   -4.0810    0.8030 c         1 MOL      0.285380
    105 O15         0.1210   -5.2270    1.1650 o         1 MOL     -0.520704
    106 C36         0.1810   -2.4000    2.8370 c3        1 MOL      0.270149
    107 C37         1.6890   -2.0480    2.7610 c3        1 MOL     -0.075452
    108 C38         0.0280   -3.5000    3.9120 c3        1 MOL     -0.421739
    109 C39         2.2800   -1.4180    3.9440 c3        1 MOL     -0.364951
    110 H46        -2.0700   -4.0490    1.9050 hn        1 MOL      0.280184
    111 H47        -0.1510   -2.0050    0.7700 h1        1 MOL      0.110840
    112 H48        -0.3140   -1.5170    3.2400 hc        1 MOL      0.076206
    113 H49         1.8940   -1.4880    1.8500 hc        1 MOL      0.046647
    114 H50         2.2640   -2.9720    2.6360 hc        1 MOL      0.046647
    115 H51         0.8430   -4.2300    3.8600 hc        1 MOL      0.093617
    116 H52        -0.0940   -2.9590    4.8530 hc        1 MOL      0.093617
    117 H53        -0.9030   -4.0340    3.7650 hc        1 MOL      0.093617
    118 H54         1.6720   -0.6000    4.3420 hc        1 MOL      0.090547
    119 H55         2.5170   -2.1640    4.7030 hc        1 MOL      0.090547
    120 H56         3.2510   -1.0280    3.6490 hc        1 MOL      0.090547
    121 N11         1.4290   -3.8120   -0.0520 n         1 MOL     -0.020575
    122 C40         2.3430   -4.6130   -0.7790 c3        1 MOL     -0.150894
    123 C41         3.7890   -4.3790   -0.3200 c         1 MOL      0.588521
    124 O16         3.9680   -3.4270    0.4990 o         1 MOL     -0.497382
    125 C42         2.1210   -4.3950   -2.3200 c3        1 MOL     -0.106183
    126 O17         2.8600   -3.2860   -2.7500 oh        1 MOL     -0.517239
    127 H57         1.4960   -2.8200   -0.2380 hn        1 MOL      0.253476
    128 H58         2.0240   -5.6280   -0.5330 h1        1 MOL      0.081289
    129 H59         1.0930   -4.2670   -2.6500 h1        1 MOL      0.100036
    130 H60         2.5720   -5.1850   -2.9210 h1        1 MOL      0.100036
    131 H61         3.5580   -3.6100   -3.3240 ho        1 MOL      0.392349
    132 N12         4.7430   -5.1290   -0.8320 n         1 MOL     -0.525886
    133 C43         6.1820   -5.1320   -0.4530 c3        1 MOL      0.214470
    134 C44         6.9390   -3.8080   -0.7150 c         1 MOL      0.417642
    135 O18         7.5440   -3.2050    0.2030 o         1 MOL     -0.499068
    136 C45         6.9050   -6.3170   -1.1400 c3        1 MOL     -0.379746
    137 H62         4.4340   -5.8850   -1.4180 hn        1 MOL      0.319253
    138 H63         6.3400   -5.3430    0.6080 h1        1 MOL      0.081746
    139 H64         6.5750   -6.3670   -2.1840 hc        1 MOL      0.110050
    140 H65         7.9840   -6.2120   -1.0310 hc        1 MOL      0.110050
    141 H66         6.6100   -7.2870   -0.7530 hc        1 MOL      0.110050
    142 N13         6.9360   -3.2640   -1.8950 n         1 MOL     -0.324181
    143 C46         7.6550   -2.0930   -2.2080 c3        1 MOL      0.104177
    144 C47         7.1450   -0.8780   -1.3110 c         1 MOL      0.406854
    145 O19         7.8400    0.0720   -0.8400 o         1 MOL     -0.503878
    146 C48         7.5560   -1.7330   -3.7190 c3        1 MOL     -0.310383
    147 H67         6.4670   -3.8460   -2.5830 hn        1 MOL      0.244403
    148 H68         8.7000   -2.2060   -1.9380 h1        1 MOL      0.079899
    149 H69         6.5360   -1.3680   -3.8840 hc        1 MOL      0.089250
    150 H70         8.1650   -0.8340   -3.7890 hc        1 MOL      0.089250
    151 H71         7.7510   -2.5340   -4.4250 hc        1 MOL      0.089250
    152 N14         5.8130   -0.9160   -1.0330 n         1 MOL     -0.273137
    153 C49         5.2220    0.1550   -0.1390 c3        1 MOL     -0.093580
    154 C50         5.6960   -0.0790    1.3400 c         1 MOL      0.498196
    155 O20         5.8870    0.9380    2.0430 o         1 MOL     -0.551128
    156 C51         3.7230   -0.0520   -0.1310 c3        1 MOL      0.040436
    157 C52         3.1720   -0.0290   -1.4860 c3        1 MOL      0.223651
    158 C53         1.6380    0.0390   -1.4140 c         1 MOL      0.565385
    159 O21         1.0700    1.1280   -1.6990 o         1 MOL     -0.685209
    160 O22         0.9490   -0.9840   -1.1490 o         1 MOL     -0.685209
    161 H72         5.2170   -1.6820   -1.3210 hn        1 MOL      0.197217
    162 H73         5.5650    1.1490   -0.4250 h1        1 MOL      0.075505
    163 H74         3.2180    0.6640    0.5120 hc        1 MOL      0.004696
    164 H75         3.5660   -1.0370    0.2850 hc        1 MOL      0.004696
    165 H76         3.4370   -0.9140   -2.0550 hc        1 MOL     -0.107697
    166 H77         3.4940    0.8210   -2.0840 hc        1 MOL     -0.107697
    167 N15         5.8790   -1.3110    1.8320 n         1 MOL     -0.007922
    168 C54         6.4650   -1.5520    3.1540 c3        1 MOL     -0.341134
    169 H78         7.5270   -1.7730    3.0450 h1        1 MOL      0.123926
    170 H79         6.3410   -0.6640    3.7740 h1        1 MOL      0.123926
    171 H80         5.9650   -2.3980    3.6250 h1        1 MOL      0.123926
    172 H81         5.7430   -2.0880    1.1960 hn        1 MOL      0.100416
    173 Ca1        -1.3020    0.0250   -1.1180 Ca        1 MOL      1.759456
    174 O23        -1.1590   -0.2190   -3.7360 oh        1 MOL     -0.888752
    175 H82        -1.1980    0.7050   -3.9810 ho        1 MOL      0.423253
    176 H83        -1.3300   -0.6890   -4.5510 ho        1 MOL      0.423253
    177 O24        -1.7480   -2.6500   -1.9970 oh        1 MOL     -0.888752
    178 H84        -1.3580   -3.4710   -1.7270 ho        1 MOL      0.423253
    179 H85        -2.2800   -2.8680   -2.7590 ho        1 MOL      0.423253
@<TRIPOS>BOND
     1    1    2 1   
     2    1    4 1   
     3    1    5 1   
     4    1    6 1   
     5    2    3 2   
     6    2    7 1   
     7    7    8 1   
     8    7   15 1   
     9    8    9 1   
    10    8   11 1   
    11    8   16 1   
    12    9   10 2   
    13    9   19 1   
    14   11   12 1   
    15   11   17 1   
    16   11   18 1   
    17   12   13 1   
    18   12   14 1   
    19   19   20 1   
    20   19   28 1   
    21   20   21 1   
    22   20   23 1   
    23   20   29 1   
    24   21   22 2   
    25   21   41 1   
    26   23   24 1   
    27   23   30 1   
    28   23   31 1   
    29   24   25 1   
    30   24   32 1   
    31   24   33 1   
    32   25   26 1   
    33   25   34 1   
    34   25   35 1   
    35   26   27 1   
    36   26   36 1   
    37   26   37 1   
    38   27   38 1   
    39   27   39 1   
    40   27   40 1   
    41   41   42 1   
    42   41   49 1   
    43   42   43 1   
    44   42   45 1   
    45   42   50 1   
    46   43   44 2   
    47   43   53 1   
    48   45   46 1   
    49   45   51 1   
    50   45   52 1   
    51   46   47 1   
    52   46   48 1   
    53   53   54 1   
    54   53   57 1   
    55   54   55 1   
    56   54   58 1   
    57   54   59 1   
    58   55   56 2   
    59   55   60 1   
    60   60   61 1   
    61   60   68 1   
    62   61   62 1   
    63   61   64 1   
    64   61   69 1   
    65   62   63 2   
    66   62   74 1   
    67   64   65 1   
    68   64   70 1   
    69   64   71 1   
    70   65   66 1   
    71   65   67 2   
    72   66   72 1   
    73   66   73 1   
    74   74   75 1   
    75   74   78 1   
    76   75   76 1   
    77   75   79 1   
    78   75   80 1   
    79   76   77 2   
    80   76   81 1   
    81   81   82 1   
    82   81   93 1   
    83   82   83 1   
    84   82   85 1   
    85   82   94 1   
    86   83   84 2   
    87   83  102 1   
    88   85   86 1   
    89   85   95 1   
    90   85   96 1   
    91   86   87 ar  
    92   86   88 ar  
    93   87   89 ar  
    94   87   97 1   
    95   88   90 ar  
    96   88   98 1   
    97   89   91 ar  
    98   89   99 1   
    99   90   91 ar  
   100   90  100 1   
   101   91   92 1   
   102   92  101 1   
   103  102  103 1   
   104  102  110 1   
   105  103  104 1   
   106  103  106 1   
   107  103  111 1   
   108  104  105 2   
   109  104  121 1   
   110  106  107 1   
   111  106  108 1   
   112  106  112 1   
   113  107  109 1   
   114  107  113 1   
   115  107  114 1   
   116  108  115 1   
   117  108  116 1   
   118  108  117 1   
   119  109  118 1   
   120  109  119 1   
   121  109  120 1   
   122  121  122 1   
   123  121  127 1   
   124  122  123 1   
   125  122  125 1   
   126  122  128 1   
   127  123  124 2   
   128  123  132 1   
   129  125  126 1   
   130  125  129 1   
   131  125  130 1   
   132  126  131 1   
   133  132  133 1   
   134  132  137 1   
   135  133  134 1   
   136  133  136 1   
   137  133  138 1   
   138  134  135 2   
   139  134  142 1   
   140  136  139 1   
   141  136  140 1   
   142  136  141 1   
   143  142  143 1   
   144  142  147 1   
   145  143  144 1   
   146  143  146 1   
   147  143  148 1   
   148  144  145 2   
   149  144  152 1   
   150  146  149 1   
   151  146  150 1   
   152  146  151 1   
   153  152  153 1   
   154  152  161 1   
   155  153  154 1   
   156  153  156 1   
   157  153  162 1   
   158  154  155 2   
   159  154  167 1   
   160  156  157 1   
   161  156  163 1   
   162  156  164 1   
   163  157  158 1   
   164  157  165 1   
   165  157  166 1   
   166  158  159 1   
   167  158  160 1   
   168  167  168 1   
   169  167  172 1   
   170  168  169 1   
   171  168  170 1   
   172  168  171 1   
   173  174  175 1   
   174  174  176 1   
   175  177  178 1   
   176  177  179 1   
@<TRIPOS>SUBSTRUCTURE
     1 MOL         1 TEMP              0 ****  ****    0 ROOT
