@<TRIPOS>MOLECULE
MOL
  179   176     1     0     0
SMALL
resp


@<TRIPOS>ATOM
      1 C1          0.3190    4.6130    6.5190 c3        1 MOL     -0.369985
      2 C2          0.6040    3.9310    5.2250 c         1 MOL      0.707857
      3 O1          1.7620    3.6930    4.8810 o         1 MOL     -0.579690
      4 H1          1.1430    5.2810    6.7660 hc        1 MOL      0.099272
      5 H2         -0.6020    5.1900    6.4310 hc        1 MOL      0.099272
      6 H3          0.2070    3.8680    7.3060 hc        1 MOL      0.099272
      7 N1         -0.4280    3.5600    4.4350 n         1 MOL     -0.575520
      8 C3         -0.4620    3.0120    3.0780 c3        1 MOL      0.099327
      9 C4         -0.7920    4.0380    2.0010 c         1 MOL      0.717173
     10 O2         -1.6450    4.8580    2.1800 o         1 MOL     -0.569223
     11 C5         -1.4780    1.8190    3.0220 c3        1 MOL     -0.383539
     12 C6         -1.5630    1.2190    1.5980 c         1 MOL      0.996570
     13 O3         -0.4960    0.9580    1.0460 o         1 MOL     -0.909500
     14 O4         -2.6380    0.8750    1.0250 o         1 MOL     -0.909500
     15 H4         -1.3300    3.6850    4.8770 hn        1 MOL      0.301899
     16 H5          0.5140    2.6330    2.8080 h1        1 MOL      0.051350
     17 H6         -2.4850    2.1470    3.2650 hc        1 MOL      0.104961
     18 H7         -1.0130    1.0680    3.6590 hc        1 MOL      0.104961
     19 N2         -0.0620    4.0470    0.8920 n         1 MOL     -0.536971
     20 C7         -0.1200    5.0930   -0.1510 c3        1 MOL     -0.034906
     21 C8         -1.4840    5.3090   -0.8440 c         1 MOL      0.448448
     22 O5         -1.8700    6.4440   -1.2700 o         1 MOL     -0.561707
     23 C9          0.9840    4.8430   -1.2720 c3        1 MOL     -0.018647
     24 C10         1.2250    5.8600   -2.4300 c3        1 MOL      0.098730
     25 C11         2.5300    5.7370   -3.1860 c3        1 MOL     -0.161567
     26 C12         2.3890    4.5700   -4.2280 c3        1 MOL      0.115115
     27 N3          3.6440    4.4610   -5.0600 n4        1 MOL     -0.450555
     28 H8          0.5520    3.2650    0.7250 hn        1 MOL      0.324184
     29 H9          0.1500    6.0540    0.2950 h1        1 MOL      0.113480
     30 H10         0.7690    3.8830   -1.7390 hc        1 MOL      0.031886
     31 H11         1.9390    4.6840   -0.7690 hc        1 MOL      0.031886
     32 H12         1.0120    6.8620   -2.0540 hc        1 MOL      0.001399
     33 H13         0.4070    5.6710   -3.1170 hc        1 MOL      0.001399
     34 H14         3.3560    5.4980   -2.5250 hc        1 MOL      0.058028
     35 H15         2.7170    6.6300   -3.7870 hc        1 MOL      0.058028
     36 H16         1.4650    4.5830   -4.8010 hx        1 MOL      0.081488
     37 H17         2.2410    3.6670   -3.6400 hx        1 MOL      0.081488
     38 H18         3.6480    3.6370   -5.6380 hn        1 MOL      0.349251
     39 H19         3.6980    5.3220   -5.6010 hn        1 MOL      0.349251
     40 H20         4.4360    4.5070   -4.4470 hn        1 MOL      0.349251
     41 N4         -2.3000    4.2670   -0.9480 n         1 MOL     -0.224662
     42 C13        -3.6800    4.3190   -1.3610 c3        1 MOL      0.017537
     43 C14        -4.7930    3.7280   -0.3960 c         1 MOL      0.386351
     44 O6         -5.9410    4.0000   -0.6390 o         1 MOL     -0.530995
     45 C15        -3.8560    3.7910   -2.7810 c3        1 MOL     -0.246991
     46 C16        -3.3930    2.3890   -3.0360 c         1 MOL      0.706657
     47 O7         -3.6210    1.8640   -4.1590 o         1 MOL     -0.707748
     48 O8         -3.0180    1.7040   -2.0590 o         1 MOL     -0.707748
     49 H21        -1.9620    3.3190   -0.8450 hn        1 MOL      0.220864
     50 H22        -4.0370    5.3490   -1.4090 h1        1 MOL      0.119112
     51 H23        -3.4470    4.5610   -3.4410 hc        1 MOL      0.080323
     52 H24        -4.9260    3.8650   -3.0010 hc        1 MOL      0.080323
     53 N5         -4.4940    2.9860    0.6660 n         1 MOL     -0.004251
     54 C17        -5.5260    2.6230    1.6450 c3        1 MOL     -0.213427
     55 C18        -6.4760    1.5190    1.1920 c         1 MOL      0.593169
     56 O9         -7.4950    1.1350    1.7990 o         1 MOL     -0.586605
     57 H25        -3.5360    3.0320    0.9720 hn        1 MOL      0.086681
     58 H26        -6.0860    3.5070    1.9340 h1        1 MOL      0.103306
     59 H27        -5.1380    2.3800    2.6280 h1        1 MOL      0.103306
     60 N6         -6.0950    0.8350    0.1050 n         1 MOL     -0.456012
     61 C19        -6.8300   -0.3010   -0.4480 c3        1 MOL      0.042034
     62 C20        -6.6970   -1.5880    0.3140 c         1 MOL      0.402914
     63 O10        -6.8700   -2.7120   -0.2290 o         1 MOL     -0.509710
     64 C21        -6.5720   -0.3880   -2.0130 c3        1 MOL     -0.402580
     65 C22        -5.1730   -0.9720   -2.3040 c         1 MOL      0.645465
     66 N7         -4.9660   -1.6520   -3.4070 n         1 MOL     -0.723462
     67 O11        -4.2450   -0.9910   -1.4940 o         1 MOL     -0.470651
     68 H28        -5.2740    1.0630   -0.4300 hn        1 MOL      0.329293
     69 H29        -7.8660    0.0090   -0.3150 h1        1 MOL      0.141789
     70 H30        -6.5670    0.5910   -2.4780 hc        1 MOL      0.151746
     71 H31        -7.3660   -1.0020   -2.4520 hc        1 MOL      0.151746
     72 H32        -5.6170   -1.4430   -4.1400 hn        1 MOL      0.349595
     73 H33        -4.0700   -2.1200   -3.4660 hn        1 MOL      0.349595
     74 N8         -6.4540   -1.5580    1.6190 n         1 MOL     -0.237436
     75 C23        -6.4700   -2.7530    2.4870 c3        1 MOL     -0.273591
     76 C24        -5.1260   -3.4360    2.5740 c         1 MOL      0.559874
     77 O12        -5.0530   -4.3540    3.4100 o         1 MOL     -0.598319
     78 H34        -6.4890   -0.6580    2.0900 hn        1 MOL      0.272300
     79 H35        -7.0090   -3.6200    2.1000 h1        1 MOL      0.159762
     80 H36        -6.7220   -2.3970    3.4800 h1        1 MOL      0.159762
     81 N9         -4.0940   -3.1580    1.8120 n         1 MOL     -0.275766
     82 C25        -2.7250   -3.7890    1.9940 c3        1 MOL      0.146828
     83 C26        -1.5360   -2.9990    1.4930 c         1 MOL      0.451654
     84 O13        -1.6680   -2.0250    0.6970 o         1 MOL     -0.463578
     85 C27        -2.7280   -5.2030    1.3110 c3        1 MOL     -0.161890
     86 C28        -2.5460   -5.1930   -0.2080 ca        1 MOL      0.042489
     87 C29        -1.2740   -5.3070   -0.7510 ca        1 MOL     -0.147528
     88 C30        -3.6800   -5.2840   -1.1320 ca        1 MOL     -0.147528
     89 C31        -1.1080   -5.5100   -2.1120 ca        1 MOL     -0.250171
     90 C32        -3.4630   -5.5280   -2.5050 ca        1 MOL     -0.250171
     91 C33        -2.1710   -5.7150   -2.9850 ca        1 MOL      0.307666
     92 O14        -1.9460   -5.9770   -4.2620 oh        1 MOL     -0.464843
     93 H37        -4.2020   -2.4560    1.0940 hn        1 MOL      0.123165
     94 H38        -2.5680   -3.8960    3.0650 h1        1 MOL      0.059857
     95 H39        -3.6500   -5.7380    1.5490 hc        1 MOL      0.079578
     96 H40        -2.0300   -5.7820    1.9170 hc        1 MOL      0.079578
     97 H41        -0.4000   -5.1850   -0.1310 ha        1 MOL      0.160205
     98 H42        -4.6630   -5.2090   -0.7090 ha        1 MOL      0.160205
     99 H43        -0.0960   -5.5690   -2.4800 ha        1 MOL      0.152033
    100 H44        -4.2950   -5.6040   -3.1870 ha        1 MOL      0.152033
    101 H45        -1.0190   -6.0420   -4.4900 ho        1 MOL      0.358638
    102 N10        -0.3500   -3.3540    1.9790 n         1 MOL     -0.684454
    103 C34         0.9290   -2.6850    1.7640 c3        1 MOL      0.389199
    104 C35         1.9830   -3.6370    1.2890 c         1 MOL      0.234566
    105 O15         1.9710   -4.8290    1.6200 o         1 MOL     -0.506132
    106 C36         1.3380   -1.8520    3.0030 c3        1 MOL      0.299202
    107 C37         2.3250   -0.7250    2.7490 c3        1 MOL      0.160495
    108 C38         1.8200   -2.6990    4.2160 c3        1 MOL     -0.426813
    109 C39         2.3610    0.3310    3.8710 c3        1 MOL     -0.093920
    110 H46        -0.3370   -4.2080    2.5280 hn        1 MOL      0.366060
    111 H47         0.8010   -1.9920    0.9410 h1        1 MOL     -0.043791
    112 H48         0.4440   -1.3540    3.3710 hc        1 MOL     -0.019665
    113 H49         2.0420   -0.2130    1.8350 hc        1 MOL     -0.123477
    114 H50         3.3200   -1.1870    2.7370 hc        1 MOL     -0.123477
    115 H51         1.8940   -2.1360    5.1480 hc        1 MOL      0.088877
    116 H52         1.1470   -3.5470    4.2780 hc        1 MOL      0.088877
    117 H53         2.8340   -2.9700    3.9130 hc        1 MOL      0.088877
    118 H54         3.1370    1.0690    3.6430 hc        1 MOL      0.032729
    119 H55         1.3870    0.8050    3.9960 hc        1 MOL      0.032729
    120 H56         2.5530   -0.1720    4.8070 hc        1 MOL      0.032729
    121 N11         2.9330   -3.1020    0.4780 n         1 MOL     -0.206016
    122 C40         4.1480   -3.8270    0.0940 c3        1 MOL      0.004848
    123 C41         5.3620   -2.9070    0.4310 c         1 MOL      0.311021
    124 O16         5.2520   -1.8080    0.9120 o         1 MOL     -0.320389
    125 C42         4.1900   -4.2300   -1.3770 c3        1 MOL      0.292884
    126 O17         3.0100   -4.9290   -1.7220 oh        1 MOL     -0.616346
    127 H57         2.8610   -2.1450    0.1710 hn        1 MOL      0.269498
    128 H58         4.2240   -4.7060    0.7330 h1        1 MOL      0.125916
    129 H59         5.0770   -4.7590   -1.6960 h1        1 MOL      0.000468
    130 H60         4.0630   -3.3040   -1.9400 h1        1 MOL      0.000468
    131 H61         2.2820   -4.3060   -1.7410 ho        1 MOL      0.356407
    132 N12         6.6330   -3.2360    0.1780 n         1 MOL     -0.526173
    133 C43         7.7740   -2.5630    0.7760 c3        1 MOL      0.330341
    134 C44         8.0710   -1.2330    0.0200 c         1 MOL      0.308708
    135 O18         8.5010   -0.1990    0.5950 o         1 MOL     -0.506392
    136 C45         8.9700   -3.5330    0.6310 c3        1 MOL     -0.475307
    137 H62         6.7820   -4.1880   -0.1210 hn        1 MOL      0.279572
    138 H63         7.6150   -2.2370    1.8010 h1        1 MOL      0.067199
    139 H64         8.9650   -3.9110   -0.3980 hc        1 MOL      0.138912
    140 H65         9.9380   -3.0940    0.8420 hc        1 MOL      0.138912
    141 H66         8.7870   -4.4140    1.2590 hc        1 MOL      0.138912
    142 N13         7.7280   -1.1730   -1.2420 n         1 MOL     -0.114413
    143 C46         7.7720    0.0130   -2.0440 c3        1 MOL     -0.057321
    144 C47         6.7490    1.1470   -1.6920 c         1 MOL      0.431539
    145 O19         6.9580    2.3560   -1.8740 o         1 MOL     -0.500974
    146 C48         7.5490   -0.4030   -3.4970 c3        1 MOL     -0.242440
    147 H67         7.5380   -2.0620   -1.6900 hn        1 MOL      0.150822
    148 H68         8.8070    0.3480   -2.0070 h1        1 MOL      0.129924
    149 H69         6.5200   -0.7540   -3.6500 hc        1 MOL      0.074198
    150 H70         7.6490    0.4890   -4.1160 hc        1 MOL      0.074198
    151 H71         8.1320   -1.2420   -3.8880 hc        1 MOL      0.074198
    152 N14         5.6270    0.7360   -1.0090 n         1 MOL     -0.215552
    153 C49         4.7570    1.6490   -0.2580 c3        1 MOL     -0.054129
    154 C50         5.1600    1.9390    1.1560 c         1 MOL      0.448830
    155 O20         5.1180    3.1000    1.5960 o         1 MOL     -0.528219
    156 C51         3.2960    1.2380   -0.4210 c3        1 MOL      0.039422
    157 C52         2.7030    0.8860   -1.7960 c3        1 MOL     -0.316533
    158 C53         1.2700    0.5060   -1.6220 c         1 MOL      0.913139
    159 O21         0.3270    1.2320   -2.0200 o         1 MOL     -0.796166
    160 O22         1.0170   -0.6590   -1.1730 o         1 MOL     -0.796166
    161 H72         5.3870   -0.2440   -1.0280 hn        1 MOL      0.175261
    162 H73         4.7180    2.5860   -0.8190 h1        1 MOL      0.064579
    163 H74         2.6620    1.9780    0.0690 hc        1 MOL      0.047155
    164 H75         3.1970    0.3460    0.1980 hc        1 MOL      0.047155
    165 H76         3.2200    0.0100   -2.1590 hc        1 MOL      0.023277
    166 H77         2.9430    1.6430   -2.5440 hc        1 MOL      0.023277
    167 N15         5.7630    0.9520    1.8780 n         1 MOL      0.044911
    168 C54         6.3180    1.3210    3.1510 c3        1 MOL     -0.361221
    169 H78         5.5340    1.7420    3.7800 h1        1 MOL      0.120815
    170 H79         6.7370    0.4380    3.6350 h1        1 MOL      0.120815
    171 H80         7.1030    2.0630    3.0050 h1        1 MOL      0.120815
    172 H81         5.9510    0.0290    1.5150 hn        1 MOL      0.069666
    173 Ca1        -1.6170   -0.2550   -1.1340 Ca        1 MOL      1.769331
    174 O23        -1.7710   -2.6690   -2.1100 oh        1 MOL     -0.846900
    175 H82        -2.3220   -3.4330   -1.9520 ho        1 MOL      0.390468
    176 H83        -0.9480   -3.0220   -2.4320 ho        1 MOL      0.390468
    177 O24        -1.7370   -0.2390   -3.9420 oh        1 MOL     -0.846900
    178 H84        -1.5080   -0.3860   -4.8610 ho        1 MOL      0.390468
    179 H85        -2.4340    0.4190   -3.9830 ho        1 MOL      0.390468
@<TRIPOS>BOND
     1    1    2 1   
     2    1    4 1   
     3    1    5 1   
     4    1    6 1   
     5    2    3 2   
     6    2    7 1   
     7    7    8 1   
     8    7   15 1   
     9    8    9 1   
    10    8   11 1   
    11    8   16 1   
    12    9   10 2   
    13    9   19 1   
    14   11   12 1   
    15   11   17 1   
    16   11   18 1   
    17   12   13 1   
    18   12   14 1   
    19   19   20 1   
    20   19   28 1   
    21   20   21 1   
    22   20   23 1   
    23   20   29 1   
    24   21   22 2   
    25   21   41 1   
    26   23   24 1   
    27   23   30 1   
    28   23   31 1   
    29   24   25 1   
    30   24   32 1   
    31   24   33 1   
    32   25   26 1   
    33   25   34 1   
    34   25   35 1   
    35   26   27 1   
    36   26   36 1   
    37   26   37 1   
    38   27   38 1   
    39   27   39 1   
    40   27   40 1   
    41   41   42 1   
    42   41   49 1   
    43   42   43 1   
    44   42   45 1   
    45   42   50 1   
    46   43   44 2   
    47   43   53 1   
    48   45   46 1   
    49   45   51 1   
    50   45   52 1   
    51   46   47 1   
    52   46   48 1   
    53   53   54 1   
    54   53   57 1   
    55   54   55 1   
    56   54   58 1   
    57   54   59 1   
    58   55   56 2   
    59   55   60 1   
    60   60   61 1   
    61   60   68 1   
    62   61   62 1   
    63   61   64 1   
    64   61   69 1   
    65   62   63 2   
    66   62   74 1   
    67   64   65 1   
    68   64   70 1   
    69   64   71 1   
    70   65   66 1   
    71   65   67 2   
    72   66   72 1   
    73   66   73 1   
    74   74   75 1   
    75   74   78 1   
    76   75   76 1   
    77   75   79 1   
    78   75   80 1   
    79   76   77 2   
    80   76   81 1   
    81   81   82 1   
    82   81   93 1   
    83   82   83 1   
    84   82   85 1   
    85   82   94 1   
    86   83   84 2   
    87   83  102 1   
    88   85   86 1   
    89   85   95 1   
    90   85   96 1   
    91   86   87 ar  
    92   86   88 ar  
    93   87   89 ar  
    94   87   97 1   
    95   88   90 ar  
    96   88   98 1   
    97   89   91 ar  
    98   89   99 1   
    99   90   91 ar  
   100   90  100 1   
   101   91   92 1   
   102   92  101 1   
   103  102  103 1   
   104  102  110 1   
   105  103  104 1   
   106  103  106 1   
   107  103  111 1   
   108  104  105 2   
   109  104  121 1   
   110  106  107 1   
   111  106  108 1   
   112  106  112 1   
   113  107  109 1   
   114  107  113 1   
   115  107  114 1   
   116  108  115 1   
   117  108  116 1   
   118  108  117 1   
   119  109  118 1   
   120  109  119 1   
   121  109  120 1   
   122  121  122 1   
   123  121  127 1   
   124  122  123 1   
   125  122  125 1   
   126  122  128 1   
   127  123  124 2   
   128  123  132 1   
   129  125  126 1   
   130  125  129 1   
   131  125  130 1   
   132  126  131 1   
   133  132  133 1   
   134  132  137 1   
   135  133  134 1   
   136  133  136 1   
   137  133  138 1   
   138  134  135 2   
   139  134  142 1   
   140  136  139 1   
   141  136  140 1   
   142  136  141 1   
   143  142  143 1   
   144  142  147 1   
   145  143  144 1   
   146  143  146 1   
   147  143  148 1   
   148  144  145 2   
   149  144  152 1   
   150  146  149 1   
   151  146  150 1   
   152  146  151 1   
   153  152  153 1   
   154  152  161 1   
   155  153  154 1   
   156  153  156 1   
   157  153  162 1   
   158  154  155 2   
   159  154  167 1   
   160  156  157 1   
   161  156  163 1   
   162  156  164 1   
   163  157  158 1   
   164  157  165 1   
   165  157  166 1   
   166  158  159 1   
   167  158  160 1   
   168  167  168 1   
   169  167  172 1   
   170  168  169 1   
   171  168  170 1   
   172  168  171 1   
   173  174  175 1   
   174  174  176 1   
   175  177  178 1   
   176  177  179 1   
@<TRIPOS>SUBSTRUCTURE
     1 MOL         1 TEMP              0 ****  ****    0 ROOT
