@<TRIPOS>MOLECULE
MOL
  179   176     1     0     0
SMALL
resp


@<TRIPOS>ATOM
      1 C1          1.0020    3.9610    6.5320 c3        1 MOL     -0.333338
      2 C2          1.0340    3.3200    5.1250 c         1 MOL      0.702937
      3 O1          2.0990    2.9110    4.6450 o         1 MOL     -0.563988
      4 H1          0.3220    4.8130    6.5260 hc        1 MOL      0.084416
      5 H2          0.6570    3.2260    7.2590 hc        1 MOL      0.084416
      6 H3          2.0030    4.2970    6.8010 hc        1 MOL      0.084416
      7 N1         -0.1180    3.1890    4.5050 n         1 MOL     -0.614762
      8 C3         -0.1520    2.8680    3.0340 c3        1 MOL      0.084220
      9 C4          0.0500    4.0660    2.1170 c         1 MOL      0.517447
     10 O2          0.0790    5.2450    2.5680 o         1 MOL     -0.538717
     11 C5         -1.5230    2.1980    2.7920 c3        1 MOL     -0.117765
     12 C6         -1.6270    1.5490    1.3960 c         1 MOL      0.664000
     13 O3         -0.6580    1.2320    0.6980 o         1 MOL     -0.740538
     14 O4         -2.7470    1.2140    1.0100 o         1 MOL     -0.740538
     15 H4         -0.9600    3.5350    4.9430 hn        1 MOL      0.328811
     16 H5          0.6530    2.1700    2.7930 h1        1 MOL      0.100989
     17 H6         -2.2930    2.9290    3.0430 hc        1 MOL      0.047863
     18 H7         -1.5360    1.3880    3.5190 hc        1 MOL      0.047863
     19 N2          0.2100    3.8870    0.8080 n         1 MOL     -0.399247
     20 C7          0.5000    4.9470   -0.2060 c3        1 MOL     -0.109398
     21 C8         -0.7140    5.3810   -1.0150 c         1 MOL      0.644361
     22 O5         -0.6020    6.4820   -1.5820 o         1 MOL     -0.585468
     23 C9          1.5570    4.4020   -1.1150 c3        1 MOL      0.337785
     24 C10         2.4730    5.2990   -1.8670 c3        1 MOL     -0.362684
     25 C11         3.4440    4.5900   -2.8050 c3        1 MOL      0.171365
     26 C12         4.0900    5.4610   -3.8480 c3        1 MOL     -0.059301
     27 N3          4.9870    4.6100   -4.7170 n4        1 MOL     -0.235581
     28 H8          0.3860    2.9370    0.5210 hn        1 MOL      0.274748
     29 H9          0.8680    5.8320    0.3020 h1        1 MOL      0.092943
     30 H10         1.0050    3.7430   -1.8000 hc        1 MOL     -0.013846
     31 H11         2.1680    3.7000   -0.5640 hc        1 MOL     -0.013846
     32 H12         3.0580    5.8070   -1.0870 hc        1 MOL      0.081289
     33 H13         1.7430    5.9380   -2.3610 hc        1 MOL      0.081289
     34 H14         2.9350    3.8250   -3.3900 hc        1 MOL      0.007078
     35 H15         4.1880    4.1550   -2.1350 hc        1 MOL      0.007078
     36 H16         4.6720    6.2400   -3.3570 hx        1 MOL      0.104165
     37 H17         3.3300    5.9030   -4.4900 hx        1 MOL      0.104165
     38 H18         5.6420    3.9990   -4.2450 hn        1 MOL      0.290848
     39 H19         4.4460    3.8970   -5.1710 hn        1 MOL      0.290848
     40 H20         5.4800    5.1460   -5.4050 hn        1 MOL      0.290848
     41 N4         -1.7600    4.5750   -0.9630 n         1 MOL     -0.474345
     42 C13        -3.0680    4.8080   -1.7060 c3        1 MOL      0.028402
     43 C14        -4.3510    4.5670   -0.9390 c         1 MOL      0.544874
     44 O6         -5.3800    5.0670   -1.2680 o         1 MOL     -0.529874
     45 C15        -3.0270    3.9790   -2.9920 c3        1 MOL     -0.242478
     46 C16        -2.8390    2.5350   -2.9160 c         1 MOL      0.846893
     47 O7         -2.5650    1.9480   -3.9700 o         1 MOL     -0.742880
     48 O8         -2.9000    1.9160   -1.7980 o         1 MOL     -0.742880
     49 H21        -1.6700    3.7430   -0.3920 hn        1 MOL      0.223769
     50 H22        -3.0980    5.8530   -2.0310 h1        1 MOL      0.093071
     51 H23        -2.2780    4.4810   -3.6050 hc        1 MOL      0.071822
     52 H24        -4.0020    4.1730   -3.4410 hc        1 MOL      0.071822
     53 N5         -4.2090    3.7520    0.1190 n         1 MOL     -0.271879
     54 C17        -5.2340    3.6090    1.0580 c3        1 MOL     -0.232438
     55 C18        -6.2180    2.4270    0.6840 c         1 MOL      0.564423
     56 O9         -7.3740    2.3900    1.1570 o         1 MOL     -0.593109
     57 H25        -3.4940    3.0450    0.1510 hn        1 MOL      0.206406
     58 H26        -5.8300    4.5240    1.1220 h1        1 MOL      0.128083
     59 H27        -4.7100    3.4090    1.9850 h1        1 MOL      0.128083
     60 N6         -5.8080    1.4550   -0.1590 n         1 MOL     -0.296598
     61 C19        -6.7640    0.5230   -0.8010 c3        1 MOL      0.070625
     62 C20        -7.0800   -0.6650    0.1240 c         1 MOL      0.390248
     63 O10        -7.8210   -1.4650   -0.4330 o         1 MOL     -0.528129
     64 C21        -6.1640    0.0440   -2.1390 c3        1 MOL     -0.237352
     65 C22        -5.0910   -1.0600   -1.9710 c         1 MOL      0.713267
     66 N7         -5.1800   -2.1320   -2.7410 n         1 MOL     -0.919705
     67 O11        -4.2000   -0.9760   -1.2150 o         1 MOL     -0.542115
     68 H28        -4.8710    1.4750   -0.5340 hn        1 MOL      0.193532
     69 H29        -7.7380    0.9190   -1.0590 h1        1 MOL      0.117119
     70 H30        -5.5620    0.8140   -2.6270 hc        1 MOL      0.081131
     71 H31        -7.0070   -0.2880   -2.7500 hc        1 MOL      0.081131
     72 H32        -6.0270   -2.3310   -3.2340 hn        1 MOL      0.395199
     73 H33        -4.5980   -2.9420   -2.5780 hn        1 MOL      0.395199
     74 N8         -6.4300   -0.9060    1.2920 n         1 MOL     -0.171802
     75 C23        -6.6270   -2.0500    2.1970 c3        1 MOL     -0.160370
     76 C24        -5.3860   -2.9840    2.4550 c         1 MOL      0.480462
     77 O12        -5.5080   -3.8220    3.3920 o         1 MOL     -0.553128
     78 H34        -5.9400   -0.1270    1.6990 hn        1 MOL      0.222357
     79 H35        -7.4770   -2.6650    1.9050 h1        1 MOL      0.105593
     80 H36        -6.8590   -1.5730    3.1450 h1        1 MOL      0.105593
     81 N9         -4.3340   -2.7760    1.7300 n         1 MOL     -0.180385
     82 C25        -3.0760   -3.4640    1.9980 c3        1 MOL      0.021792
     83 C26        -1.7380   -2.7210    1.6110 c         1 MOL      0.473935
     84 O13        -1.7490   -1.7870    0.8030 o         1 MOL     -0.494156
     85 C27        -3.2020   -4.9420    1.5500 c3        1 MOL     -0.065364
     86 C28        -3.4340   -5.0930    0.0420 ca        1 MOL      0.049428
     87 C29        -2.2950   -5.1480   -0.7640 ca        1 MOL     -0.190488
     88 C30        -4.7520   -5.2080   -0.5480 ca        1 MOL     -0.190488
     89 C31        -2.4280   -5.2750   -2.1920 ca        1 MOL     -0.172357
     90 C32        -4.8540   -5.4930   -1.9780 ca        1 MOL     -0.172357
     91 C33        -3.7040   -5.5520   -2.7340 ca        1 MOL      0.242427
     92 O14        -3.7800   -5.5120   -4.1050 oh        1 MOL     -0.513512
     93 H37        -4.2890   -2.0710    1.0100 hn        1 MOL      0.164534
     94 H38        -2.9860   -3.4880    3.0830 h1        1 MOL      0.043977
     95 H39        -4.0390   -5.3250    2.1350 hc        1 MOL      0.055976
     96 H40        -2.3730   -5.5620    1.8920 hc        1 MOL      0.055976
     97 H41        -1.3330   -5.0920   -0.2770 ha        1 MOL      0.146449
     98 H42        -5.6610   -5.1960    0.0230 ha        1 MOL      0.146449
     99 H43        -1.5810   -5.2190   -2.8730 ha        1 MOL      0.120379
    100 H44        -5.7750   -5.6230   -2.5100 ha        1 MOL      0.120379
    101 H45        -4.6410   -5.6260   -4.5110 ho        1 MOL      0.379216
    102 N10        -0.6100   -3.2320    2.1090 n         1 MOL     -0.461280
    103 C34         0.7550   -2.5990    1.9840 c3        1 MOL     -0.096422
    104 C35         1.7770   -3.6170    1.3450 c         1 MOL      0.608493
    105 O15         2.2140   -4.6280    1.9370 o         1 MOL     -0.541450
    106 C36         1.1690   -2.0280    3.3450 c3        1 MOL     -0.032759
    107 C37         0.1400   -1.0330    3.8370 c3        1 MOL      0.114888
    108 C38         2.5710   -1.3930    3.3900 c3        1 MOL     -0.144992
    109 C39         0.3810   -0.7180    5.2630 c3        1 MOL     -0.367527
    110 H46        -0.6730   -4.0110    2.7570 hn        1 MOL      0.295522
    111 H47         0.6340   -1.8080    1.2400 h1        1 MOL      0.206947
    112 H48         1.3700   -2.8740    4.0140 hc        1 MOL      0.048411
    113 H49        -0.8720   -1.4220    3.8790 hc        1 MOL      0.026106
    114 H50         0.1250   -0.1640    3.1770 hc        1 MOL      0.026106
    115 H51         2.9770   -1.2780    4.3940 hc        1 MOL      0.044696
    116 H52         3.2380   -2.0220    2.7920 hc        1 MOL      0.044696
    117 H53         2.3990   -0.4440    2.8900 hc        1 MOL      0.044696
    118 H54         1.2340   -0.0270    5.2720 hc        1 MOL      0.092829
    119 H55        -0.5060   -0.2020    5.6250 hc        1 MOL      0.092829
    120 H56         0.6900   -1.5330    5.9130 hc        1 MOL      0.092829
    121 N11         2.1490   -3.2270    0.0960 n         1 MOL     -0.560903
    122 C40         3.2970   -3.8410   -0.5270 c3        1 MOL      0.447603
    123 C41         4.6650   -3.2270   -0.0260 c         1 MOL      0.114698
    124 O16         4.6980   -2.0760    0.3130 o         1 MOL     -0.071082
    125 C42         3.2370   -3.8290   -2.0650 c3        1 MOL      0.156496
    126 O17         2.1100   -4.2620   -2.7770 oh        1 MOL     -0.560427
    127 H57         1.9080   -2.2820   -0.1550 hn        1 MOL      0.234379
    128 H58         3.2610   -4.8850   -0.2070 h1        1 MOL     -0.006087
    129 H59         4.0410   -4.4630   -2.4170 h1        1 MOL     -0.012165
    130 H60         3.4260   -2.8030   -2.3870 h1        1 MOL     -0.012165
    131 H61         2.1490   -3.6990   -3.5570 ho        1 MOL      0.382178
    132 N12         5.7540   -3.9700   -0.1410 n         1 MOL     -0.461781
    133 C43         7.1520   -3.6760    0.2700 c3        1 MOL      0.260087
    134 C44         7.6510   -2.2640   -0.1710 c         1 MOL      0.418334
    135 O18         8.1650   -1.5520    0.6940 o         1 MOL     -0.496289
    136 C45         7.9870   -4.8450   -0.2400 c3        1 MOL     -0.437746
    137 H62         5.6470   -4.8580   -0.6040 hn        1 MOL      0.281142
    138 H63         7.2770   -3.7210    1.3560 h1        1 MOL      0.078742
    139 H64         8.9980   -4.7920    0.1540 hc        1 MOL      0.125815
    140 H65         7.5540   -5.8390   -0.0790 hc        1 MOL      0.125815
    141 H66         8.1130   -4.9230   -1.3150 hc        1 MOL      0.125815
    142 N13         7.4470   -1.8680   -1.4240 n         1 MOL     -0.402598
    143 C46         7.8170   -0.5300   -1.9420 c3        1 MOL      0.246126
    144 C47         6.9310    0.6170   -1.3720 c         1 MOL      0.333501
    145 O19         7.3330    1.7880   -1.4040 o         1 MOL     -0.551644
    146 C48         7.7610   -0.6120   -3.4950 c3        1 MOL     -0.347556
    147 H67         7.0910   -2.5600   -2.0740 hn        1 MOL      0.236939
    148 H68         8.8310   -0.1860   -1.7330 h1        1 MOL      0.080329
    149 H69         8.5880   -1.2830   -3.7240 hc        1 MOL      0.092718
    150 H70         6.8460   -1.0440   -3.8920 hc        1 MOL      0.092718
    151 H71         7.8920    0.4030   -3.8720 hc        1 MOL      0.092718
    152 N14         5.8350    0.3500   -0.7130 n         1 MOL     -0.109231
    153 C49         5.0800    1.3100    0.0740 c3        1 MOL     -0.050844
    154 C50         5.4640    1.2650    1.5590 c         1 MOL      0.512518
    155 O20         5.3960    2.3030    2.2200 o         1 MOL     -0.536137
    156 C51         3.5780    1.0800    0.1140 c3        1 MOL      0.258941
    157 C52         2.9960    0.6940   -1.3350 c3        1 MOL      0.157033
    158 C53         1.5590    0.3500   -1.2590 c         1 MOL      0.646100
    159 O21         1.1400   -0.7610   -0.8770 o         1 MOL     -0.739555
    160 O22         0.7520    1.0840   -1.8720 o         1 MOL     -0.739555
    161 H72         5.5090   -0.6000   -0.6780 hn        1 MOL      0.003425
    162 H73         5.2610    2.2950   -0.3580 h1        1 MOL      0.070603
    163 H74         2.9660    1.9510    0.3590 hc        1 MOL     -0.106973
    164 H75         3.3500    0.1740    0.6690 hc        1 MOL     -0.106973
    165 H76         3.4290   -0.2710   -1.5830 hc        1 MOL     -0.108278
    166 H77         3.3190    1.4270   -2.0840 hc        1 MOL     -0.108278
    167 N15         5.8490    0.1010    2.1280 n         1 MOL     -0.194730
    168 C54         6.4870    0.0760    3.4500 c3        1 MOL     -0.236814
    169 H78         7.3400   -0.6020    3.4290 h1        1 MOL      0.107101
    170 H79         6.8270    1.0790    3.7090 h1        1 MOL      0.107101
    171 H80         5.7680   -0.2680    4.1940 h1        1 MOL      0.107101
    172 H81         5.8230   -0.7670    1.6190 hn        1 MOL      0.127787
    173 Ca1        -1.4710   -0.2120   -1.3200 Ca        1 MOL      1.746943
    174 O23        -0.6420   -2.6310   -2.2190 oh        1 MOL     -0.866935
    175 H82        -0.4830   -2.9480   -3.1070 ho        1 MOL      0.416814
    176 H83         0.2290   -2.5780   -1.8290 ho        1 MOL      0.416814
    177 O24        -2.0650   -0.6670   -3.7210 oh        1 MOL     -0.866935
    178 H84        -2.5230    0.1300   -4.0050 ho        1 MOL      0.416814
    179 H85        -2.5390   -1.3790   -4.1550 ho        1 MOL      0.416814
@<TRIPOS>BOND
     1    1    2 1   
     2    1    4 1   
     3    1    5 1   
     4    1    6 1   
     5    2    3 2   
     6    2    7 1   
     7    7    8 1   
     8    7   15 1   
     9    8    9 1   
    10    8   11 1   
    11    8   16 1   
    12    9   10 2   
    13    9   19 1   
    14   11   12 1   
    15   11   17 1   
    16   11   18 1   
    17   12   13 1   
    18   12   14 1   
    19   19   20 1   
    20   19   28 1   
    21   20   21 1   
    22   20   23 1   
    23   20   29 1   
    24   21   22 2   
    25   21   41 1   
    26   23   24 1   
    27   23   30 1   
    28   23   31 1   
    29   24   25 1   
    30   24   32 1   
    31   24   33 1   
    32   25   26 1   
    33   25   34 1   
    34   25   35 1   
    35   26   27 1   
    36   26   36 1   
    37   26   37 1   
    38   27   38 1   
    39   27   39 1   
    40   27   40 1   
    41   41   42 1   
    42   41   49 1   
    43   42   43 1   
    44   42   45 1   
    45   42   50 1   
    46   43   44 2   
    47   43   53 1   
    48   45   46 1   
    49   45   51 1   
    50   45   52 1   
    51   46   47 1   
    52   46   48 1   
    53   53   54 1   
    54   53   57 1   
    55   54   55 1   
    56   54   58 1   
    57   54   59 1   
    58   55   56 2   
    59   55   60 1   
    60   60   61 1   
    61   60   68 1   
    62   61   62 1   
    63   61   64 1   
    64   61   69 1   
    65   62   63 2   
    66   62   74 1   
    67   64   65 1   
    68   64   70 1   
    69   64   71 1   
    70   65   66 1   
    71   65   67 2   
    72   66   72 1   
    73   66   73 1   
    74   74   75 1   
    75   74   78 1   
    76   75   76 1   
    77   75   79 1   
    78   75   80 1   
    79   76   77 2   
    80   76   81 1   
    81   81   82 1   
    82   81   93 1   
    83   82   83 1   
    84   82   85 1   
    85   82   94 1   
    86   83   84 2   
    87   83  102 1   
    88   85   86 1   
    89   85   95 1   
    90   85   96 1   
    91   86   87 ar  
    92   86   88 ar  
    93   87   89 ar  
    94   87   97 1   
    95   88   90 ar  
    96   88   98 1   
    97   89   91 ar  
    98   89   99 1   
    99   90   91 ar  
   100   90  100 1   
   101   91   92 1   
   102   92  101 1   
   103  102  103 1   
   104  102  110 1   
   105  103  104 1   
   106  103  106 1   
   107  103  111 1   
   108  104  105 2   
   109  104  121 1   
   110  106  107 1   
   111  106  108 1   
   112  106  112 1   
   113  107  109 1   
   114  107  113 1   
   115  107  114 1   
   116  108  115 1   
   117  108  116 1   
   118  108  117 1   
   119  109  118 1   
   120  109  119 1   
   121  109  120 1   
   122  121  122 1   
   123  121  127 1   
   124  122  123 1   
   125  122  125 1   
   126  122  128 1   
   127  123  124 2   
   128  123  132 1   
   129  125  126 1   
   130  125  129 1   
   131  125  130 1   
   132  126  131 1   
   133  132  133 1   
   134  132  137 1   
   135  133  134 1   
   136  133  136 1   
   137  133  138 1   
   138  134  135 2   
   139  134  142 1   
   140  136  139 1   
   141  136  140 1   
   142  136  141 1   
   143  142  143 1   
   144  142  147 1   
   145  143  144 1   
   146  143  146 1   
   147  143  148 1   
   148  144  145 2   
   149  144  152 1   
   150  146  149 1   
   151  146  150 1   
   152  146  151 1   
   153  152  153 1   
   154  152  161 1   
   155  153  154 1   
   156  153  156 1   
   157  153  162 1   
   158  154  155 2   
   159  154  167 1   
   160  156  157 1   
   161  156  163 1   
   162  156  164 1   
   163  157  158 1   
   164  157  165 1   
   165  157  166 1   
   166  158  159 1   
   167  158  160 1   
   168  167  168 1   
   169  167  172 1   
   170  168  169 1   
   171  168  170 1   
   172  168  171 1   
   173  174  175 1   
   174  174  176 1   
   175  177  178 1   
   176  177  179 1   
@<TRIPOS>SUBSTRUCTURE
     1 MOL         1 TEMP              0 ****  ****    0 ROOT
