@<TRIPOS>MOLECULE
MOL
  189   185     1     0     0
SMALL
resp


@<TRIPOS>ATOM
      1 C1          0.2000    2.2760    4.9070 c3        1 MOL     -0.400661
      2 C2         -0.5700    2.3520    3.5520 c         1 MOL      0.673427
      3 O1          0.0590    2.8270    2.6490 o         1 MOL     -0.540986
      4 H1         -0.4420    2.6400    5.7100 hc        1 MOL      0.104280
      5 H2          0.4810    1.2420    5.1080 hc        1 MOL      0.104280
      6 H3          1.0960    2.8930    4.8520 hc        1 MOL      0.104280
      7 N1         -1.7980    1.7850    3.4540 n         1 MOL     -0.730702
      8 C3         -2.4810    1.5890    2.1980 c3        1 MOL      0.507905
      9 C4         -3.3810    2.7850    1.8860 c         1 MOL      0.234002
     10 O2         -4.5440    2.8760    2.2600 o         1 MOL     -0.488452
     11 C5         -3.2760    0.3250    2.2460 c3        1 MOL     -0.346106
     12 C6         -4.0880   -0.0160    1.0310 c         1 MOL      0.711064
     13 O3         -5.0300   -0.8360    1.0390 o         1 MOL     -0.622411
     14 O4         -3.7030    0.4270   -0.0670 o         1 MOL     -0.622411
     15 H4         -2.1750    1.3100    4.2620 hn        1 MOL      0.347844
     16 H5         -1.7300    1.4450    1.4160 h1        1 MOL      0.018149
     17 H6         -4.0300    0.4670    3.0180 hc        1 MOL      0.058339
     18 H7         -2.7260   -0.5690    2.5210 hc        1 MOL      0.058339
     19 N2         -2.6830    3.7890    1.3130 n         1 MOL     -0.025287
     20 C7         -3.3280    5.0270    0.8640 c3        1 MOL     -0.075887
     21 C8         -4.1440    4.8390   -0.3640 c         1 MOL      0.319807
     22 O5         -4.7460    5.7920   -0.7700 o         1 MOL     -0.516169
     23 C9         -2.3000    6.2290    0.5970 c3        1 MOL     -0.063418
     24 C10        -1.1860    6.2770    1.6060 c3        1 MOL     -0.162877
     25 C11        -1.4650    6.4890    3.0950 c3        1 MOL     -0.034759
     26 C12        -2.4970    7.5890    3.2830 c3        1 MOL     -0.067291
     27 N3         -3.1650    7.4650    4.5550 n4        1 MOL     -0.417631
     28 H8         -1.6930    3.6690    1.1290 hn        1 MOL      0.231374
     29 H9         -3.9430    5.3340    1.7190 h1        1 MOL      0.087223
     30 H10        -2.9120    7.1350    0.5820 hc        1 MOL      0.061881
     31 H11        -1.8470    6.1610   -0.3970 hc        1 MOL      0.061881
     32 H12        -0.5710    7.1160    1.2750 hc        1 MOL      0.094616
     33 H13        -0.7350    5.2900    1.5010 hc        1 MOL      0.094616
     34 H14        -0.4780    6.5820    3.5380 hc        1 MOL      0.035155
     35 H15        -1.9290    5.5450    3.4070 hc        1 MOL      0.035155
     36 H16        -3.3170    7.4430    2.5800 hx        1 MOL      0.122579
     37 H17        -1.9760    8.5510    3.2170 hx        1 MOL      0.122579
     38 H18        -3.8810    8.1610    4.7320 hn        1 MOL      0.346626
     39 H19        -3.6250    6.5710    4.7050 hn        1 MOL      0.346626
     40 H20        -2.4560    7.6360    5.2520 hn        1 MOL      0.346626
     41 N4         -4.0670    3.6700   -1.0540 n         1 MOL      0.079169
     42 C13        -4.6970    3.4990   -2.3560 c3        1 MOL     -0.099733
     43 C14        -6.0150    2.8090   -2.1940 c         1 MOL      0.413835
     44 O6         -6.8340    2.8100   -3.1170 o         1 MOL     -0.507286
     45 C15        -3.7980    2.6680   -3.3180 c3        1 MOL      0.095449
     46 C16        -2.2630    2.6230   -3.0600 c         1 MOL      0.632498
     47 O7         -1.5610    3.3310   -3.7600 o         1 MOL     -0.664058
     48 O8         -1.7640    1.8550   -2.1910 o         1 MOL     -0.664058
     49 H21        -3.6290    2.9150   -0.5530 hn        1 MOL     -0.210528
     50 H22        -4.9040    4.4680   -2.8070 h1        1 MOL      0.099752
     51 H23        -4.0110    2.9190   -4.3610 hc        1 MOL     -0.016898
     52 H24        -4.0240    1.6070   -3.2380 hc        1 MOL     -0.016898
     53 N5         -6.1550    2.0020   -1.1180 n         1 MOL     -0.214624
     54 C17        -7.3290    1.2770   -0.7120 c3        1 MOL     -0.122392
     55 C18        -7.5400   -0.0700   -1.4360 c         1 MOL      0.422676
     56 O9         -8.6330   -0.3550   -1.9580 o         1 MOL     -0.544504
     57 H25        -5.3870    1.9170   -0.4650 hn        1 MOL      0.226131
     58 H26        -8.1710    1.9610   -0.8090 h1        1 MOL      0.089139
     59 H27        -7.3970    1.1070    0.3710 h1        1 MOL      0.089139
     60 N6         -6.4500   -0.8890   -1.5740 n         1 MOL     -0.058724
     61 C19        -6.5270   -2.1980   -2.1600 c3        1 MOL     -0.033353
     62 C20        -6.6700   -3.3000   -1.1210 c         1 MOL      0.423611
     63 O10        -7.0610   -4.3960   -1.5030 o         1 MOL     -0.535398
     64 C21        -5.3980   -2.5020   -3.1560 c3        1 MOL     -0.224428
     65 C22        -4.0230   -1.9900   -2.6500 c         1 MOL      0.692135
     66 O11        -3.4400   -0.9950   -3.1250 o         1 MOL     -0.717734
     67 O12        -3.5400   -2.6680   -1.6920 o         1 MOL     -0.717734
     68 H28        -5.5520   -0.5730   -1.2210 hn        1 MOL      0.080043
     69 H29        -7.4220   -2.2200   -2.7690 h1        1 MOL      0.113175
     70 H30        -5.5920   -2.0550   -4.1320 hc        1 MOL      0.081187
     71 H31        -5.3620   -3.5850   -3.2600 hc        1 MOL      0.081187
     72 N7         -6.3670   -3.0250    0.1590 n         1 MOL     -0.277809
     73 C23        -6.2070   -4.0670    1.1810 c3        1 MOL      0.056288
     74 C24        -4.8540   -4.7760    1.1740 c         1 MOL      0.395821
     75 O13        -4.7910   -5.7930    1.8500 o         1 MOL     -0.560084
     76 H32        -5.9830   -2.1270    0.4150 hn        1 MOL      0.153099
     77 H33        -7.1010   -4.6870    1.1380 h1        1 MOL      0.051586
     78 H34        -6.3780   -3.6180    2.1570 h1        1 MOL      0.051586
     79 N8         -3.8150   -4.1840    0.6040 n         1 MOL     -0.005845
     80 C25        -2.4910   -4.8320    0.8040 c3        1 MOL     -0.258564
     81 C26        -1.3970   -3.8000    0.9950 c         1 MOL      0.602460
     82 O14        -1.5500   -2.5910    0.6350 o         1 MOL     -0.621596
     83 C27        -2.1060   -5.6840   -0.4140 c3        1 MOL      0.493818
     84 C28        -2.9010   -7.0040   -0.5730 c3        1 MOL     -0.417024
     85 O15        -2.2900   -5.0310   -1.6980 oh        1 MOL     -0.741284
     86 H35        -3.9340   -3.3010    0.1340 hn        1 MOL      0.116877
     87 H36        -2.4780   -5.5590    1.6130 h1        1 MOL      0.124764
     88 H37        -1.0400   -5.9070   -0.4790 h1        1 MOL      0.008060
     89 H38        -2.9400   -4.3240   -1.7420 ho        1 MOL      0.450271
     90 H39        -2.5820   -7.6050   -1.4280 hc        1 MOL      0.105374
     91 H40        -2.6350   -7.5880    0.3110 hc        1 MOL      0.105374
     92 H41        -3.9720   -6.8230   -0.6290 hc        1 MOL      0.105374
     93 N9         -0.2100   -4.1710    1.5580 n         1 MOL     -0.558755
     94 C29         0.9010   -3.3190    1.9350 c3        1 MOL      0.073891
     95 C30         2.2260   -3.7860    1.3020 c         1 MOL      0.460187
     96 O16         2.6250   -4.9450    1.4630 o         1 MOL     -0.572564
     97 C31         0.9380   -3.2310    3.4760 c3        1 MOL      0.193144
     98 C32        -0.2510   -2.4310    3.9690 c3        1 MOL     -0.062215
     99 C33         2.2480   -2.4820    3.8810 c3        1 MOL     -0.418203
    100 C34        -0.5790   -2.7240    5.4640 c3        1 MOL     -0.139990
    101 H42        -0.0750   -5.1370    1.8410 hn        1 MOL      0.276229
    102 H43         0.6300   -2.3170    1.6110 h1        1 MOL      0.083236
    103 H44         0.9880   -4.2570    3.8230 hc        1 MOL      0.016425
    104 H45        -1.1880   -2.6520    3.4530 hc        1 MOL      0.067635
    105 H46        -0.0370   -1.3660    3.8940 hc        1 MOL      0.067635
    106 H47         2.1410   -2.2470    4.9330 hc        1 MOL      0.080747
    107 H48         3.1080   -3.1380    3.7610 hc        1 MOL      0.080747
    108 H49         2.3380   -1.5640    3.3040 hc        1 MOL      0.080747
    109 H50        -1.3740   -2.0260    5.7470 hc        1 MOL      0.030138
    110 H51        -0.9490   -3.7210    5.6840 hc        1 MOL      0.030138
    111 H52         0.3100   -2.6340    6.0740 hc        1 MOL      0.030138
    112 N10         2.9120   -2.9890    0.5290 n         1 MOL     -0.093374
    113 C35         4.1290   -3.1930   -0.2570 c3        1 MOL     -0.067017
    114 C36         5.4120   -2.6270    0.3190 c         1 MOL      0.379618
    115 O17         5.4020   -2.0600    1.3860 o         1 MOL     -0.426653
    116 C37         3.9830   -2.5350   -1.5890 c3        1 MOL      0.095221
    117 C38         2.8820   -3.1890   -2.4690 c3        1 MOL     -0.300897
    118 O18         3.6970   -1.1280   -1.4230 oh        1 MOL     -0.613304
    119 H53         2.6110   -2.0330    0.5820 hn        1 MOL      0.336190
    120 H54         4.3250   -4.2370   -0.4830 h1        1 MOL      0.078362
    121 H55         4.8960   -2.5440   -2.1740 h1        1 MOL      0.094764
    122 H56         2.7840   -1.0270   -1.1350 ho        1 MOL      0.430227
    123 H57         3.2020   -4.1570   -2.8410 hc        1 MOL      0.083760
    124 H58         1.8780   -3.2730   -2.0620 hc        1 MOL      0.083760
    125 H59         2.8660   -2.6900   -3.4340 hc        1 MOL      0.083760
    126 N11         6.6110   -2.7240   -0.3060 n         1 MOL     -0.140141
    127 C39         7.7880   -2.0520    0.1730 c3        1 MOL     -0.416152
    128 C40         7.8000   -0.5660   -0.1110 c         1 MOL      0.405322
    129 O19         8.3100    0.1910    0.7380 o         1 MOL     -0.494567
    130 C41         9.0600   -2.6000   -0.4680 c3        1 MOL      0.288279
    131 C42         9.4060   -4.0080    0.0680 c3        1 MOL     -0.281278
    132 O20         9.0290   -2.6950   -1.8490 oh        1 MOL     -0.609477
    133 H60         6.6160   -3.1640   -1.2090 hn        1 MOL      0.157121
    134 H61         7.9380   -2.2960    1.2290 h1        1 MOL      0.230872
    135 H62         9.8450   -1.8550   -0.3180 h1        1 MOL      0.117776
    136 H63         8.5880   -3.5270   -2.0510 ho        1 MOL      0.401098
    137 H64        10.3710   -4.2930   -0.3390 hc        1 MOL      0.078603
    138 H65         9.5480   -3.8430    1.1340 hc        1 MOL      0.078603
    139 H66         8.6550   -4.7950   -0.0460 hc        1 MOL      0.078603
    140 N12         7.3110   -0.1380   -1.2630 n         1 MOL     -0.109351
    141 C43         7.0880    1.3260   -1.4990 c3        1 MOL     -0.161777
    142 C44         6.2720    1.9710   -0.3530 c         1 MOL      0.411606
    143 O21         6.6270    2.9780    0.1230 o         1 MOL     -0.459606
    144 C45         6.6630    1.6110   -2.9000 c3        1 MOL     -0.130829
    145 C46         6.7210    3.1960   -3.1650 c3        1 MOL      0.047944
    146 C47         6.0450    3.6250   -4.4850 c3        1 MOL     -0.126832
    147 C48         6.3130    5.0680   -4.7300 c3        1 MOL     -0.057320
    148 N13         7.5800    5.2960   -5.4880 n4        1 MOL     -0.246552
    149 H67         7.1620   -0.8310   -1.9790 hn        1 MOL      0.204964
    150 H68         8.0530    1.8200   -1.3750 h1        1 MOL      0.102566
    151 H69         5.6190    1.3470   -3.1090 hc        1 MOL      0.056670
    152 H70         7.2320    1.0660   -3.6440 hc        1 MOL      0.056670
    153 H71         7.7790    3.3930   -3.3620 hc        1 MOL      0.026888
    154 H72         6.4920    3.8060   -2.3020 hc        1 MOL      0.026888
    155 H73         4.9690    3.5160   -4.3380 hc        1 MOL      0.082109
    156 H74         6.1820    3.0440   -5.3930 hc        1 MOL      0.082109
    157 H75         6.3320    5.6530   -3.8170 hx        1 MOL      0.123339
    158 H76         5.5470    5.4980   -5.3870 hx        1 MOL      0.123339
    159 H77         7.6200    4.6940   -6.3020 hn        1 MOL      0.268358
    160 H78         7.6890    6.2410   -5.8060 hn        1 MOL      0.268358
    161 H79         8.3640    5.0030   -4.9260 hn        1 MOL      0.268358
    162 N14         5.2430    1.2130    0.1430 n         1 MOL      0.008334
    163 C49         4.3680    1.7430    1.2220 c3        1 MOL     -0.185704
    164 C50         5.0440    1.7940    2.6130 c         1 MOL      0.398158
    165 O22         4.9990    2.8320    3.2690 o         1 MOL     -0.535555
    166 C51         3.0160    0.9430    1.2960 c3        1 MOL      0.360729
    167 C52         2.1230    1.2990    0.0710 c3        1 MOL     -0.481738
    168 C53         1.0080    0.2540    0.0310 c         1 MOL      1.086626
    169 O23         1.2730   -0.9260   -0.1870 o         1 MOL     -0.898364
    170 O24        -0.1760    0.6510    0.0910 o         1 MOL     -0.898364
    171 H80         4.9510    0.3640   -0.3080 hn        1 MOL      0.063188
    172 H81         4.1110    2.7780    1.0500 h1        1 MOL      0.094614
    173 H82         2.4670    1.2300    2.1830 hc        1 MOL     -0.070717
    174 H83         3.3590   -0.0950    1.2730 hc        1 MOL     -0.070717
    175 H84         2.6800    1.1980   -0.8600 hc        1 MOL      0.097747
    176 H85         1.7930    2.3260    0.1880 hc        1 MOL      0.097747
    177 N15         5.7850    0.7560    2.9480 n         1 MOL     -0.054423
    178 C54         6.6410    0.6860    4.1710 c3        1 MOL     -0.490551
    179 H86         6.0140    0.7700    5.0590 h1        1 MOL      0.170090
    180 H87         7.1720   -0.2660    4.1900 h1        1 MOL      0.170090
    181 H88         7.3620    1.5040    4.1580 h1        1 MOL      0.170090
    182 H89         5.7200    0.0070    2.2750 hn        1 MOL      0.156301
    183 Ca1        -1.6830   -0.6070   -1.3780 Ca        1 MOL      1.800219
    184 O25        -0.7970   -2.7670   -2.9040 oh        1 MOL     -0.825298
    185 H90        -0.1080   -3.1330   -3.4520 ho        1 MOL      0.400896
    186 H91        -1.3150   -3.5170   -2.6250 ho        1 MOL      0.400896
    187 O26         0.4410   -0.1360   -3.0770 oh        1 MOL     -0.825298
    188 H92         1.3480    0.1660   -3.0940 ho        1 MOL      0.400896
    189 H93         0.2340   -0.2930   -4.0010 ho        1 MOL      0.400896
@<TRIPOS>BOND
     1    1    2 1   
     2    1    4 1   
     3    1    5 1   
     4    1    6 1   
     5    2    3 2   
     6    2    7 1   
     7    7    8 1   
     8    7   15 1   
     9    8    9 1   
    10    8   11 1   
    11    8   16 1   
    12    9   10 2   
    13    9   19 1   
    14   11   12 1   
    15   11   17 1   
    16   11   18 1   
    17   12   13 1   
    18   12   14 1   
    19   19   20 1   
    20   19   28 1   
    21   20   21 1   
    22   20   23 1   
    23   20   29 1   
    24   21   22 2   
    25   21   41 1   
    26   23   24 1   
    27   23   30 1   
    28   23   31 1   
    29   24   25 1   
    30   24   32 1   
    31   24   33 1   
    32   25   26 1   
    33   25   34 1   
    34   25   35 1   
    35   26   27 1   
    36   26   36 1   
    37   26   37 1   
    38   27   38 1   
    39   27   39 1   
    40   27   40 1   
    41   41   42 1   
    42   41   49 1   
    43   42   43 1   
    44   42   45 1   
    45   42   50 1   
    46   43   44 2   
    47   43   53 1   
    48   45   46 1   
    49   45   51 1   
    50   45   52 1   
    51   46   47 1   
    52   46   48 1   
    53   53   54 1   
    54   53   57 1   
    55   54   55 1   
    56   54   58 1   
    57   54   59 1   
    58   55   56 2   
    59   55   60 1   
    60   60   61 1   
    61   60   68 1   
    62   61   62 1   
    63   61   64 1   
    64   61   69 1   
    65   62   63 2   
    66   62   72 1   
    67   64   65 1   
    68   64   70 1   
    69   64   71 1   
    70   65   66 1   
    71   65   67 1   
    72   72   73 1   
    73   72   76 1   
    74   73   74 1   
    75   73   77 1   
    76   73   78 1   
    77   74   75 2   
    78   74   79 1   
    79   79   80 1   
    80   79   86 1   
    81   80   81 1   
    82   80   83 1   
    83   80   87 1   
    84   81   82 2   
    85   81   93 1   
    86   83   84 1   
    87   83   85 1   
    88   83   88 1   
    89   84   90 1   
    90   84   91 1   
    91   84   92 1   
    92   85   89 1   
    93   93   94 1   
    94   93  101 1   
    95   94   95 1   
    96   94   97 1   
    97   94  102 1   
    98   95   96 2   
    99   95  112 1   
   100   97   98 1   
   101   97   99 1   
   102   97  103 1   
   103   98  100 1   
   104   98  104 1   
   105   98  105 1   
   106   99  106 1   
   107   99  107 1   
   108   99  108 1   
   109  100  109 1   
   110  100  110 1   
   111  100  111 1   
   112  112  113 1   
   113  112  119 1   
   114  113  114 1   
   115  113  116 1   
   116  113  120 1   
   117  114  115 2   
   118  114  126 1   
   119  116  117 1   
   120  116  118 1   
   121  116  121 1   
   122  117  123 1   
   123  117  124 1   
   124  117  125 1   
   125  118  122 1   
   126  126  127 1   
   127  126  133 1   
   128  127  128 1   
   129  127  130 1   
   130  127  134 1   
   131  128  129 2   
   132  128  140 1   
   133  130  131 1   
   134  130  132 1   
   135  130  135 1   
   136  131  137 1   
   137  131  138 1   
   138  131  139 1   
   139  132  136 1   
   140  140  141 1   
   141  140  149 1   
   142  141  142 1   
   143  141  144 1   
   144  141  150 1   
   145  142  143 2   
   146  142  162 1   
   147  144  145 1   
   148  144  151 1   
   149  144  152 1   
   150  145  146 1   
   151  145  153 1   
   152  145  154 1   
   153  146  147 1   
   154  146  155 1   
   155  146  156 1   
   156  147  148 1   
   157  147  157 1   
   158  147  158 1   
   159  148  159 1   
   160  148  160 1   
   161  148  161 1   
   162  162  163 1   
   163  162  171 1   
   164  163  164 1   
   165  163  166 1   
   166  163  172 1   
   167  164  165 2   
   168  164  177 1   
   169  166  167 1   
   170  166  173 1   
   171  166  174 1   
   172  167  168 1   
   173  167  175 1   
   174  167  176 1   
   175  168  169 1   
   176  168  170 1   
   177  177  178 1   
   178  177  182 1   
   179  178  179 1   
   180  178  180 1   
   181  178  181 1   
   182  184  185 1   
   183  184  186 1   
   184  187  188 1   
   185  187  189 1   
@<TRIPOS>SUBSTRUCTURE
     1 MOL         1 TEMP              0 ****  ****    0 ROOT
