@<TRIPOS>MOLECULE
MOL
  189   185     1     0     0
SMALL
resp


@<TRIPOS>ATOM
      1 C1          0.2100   -2.6780    6.0700 c3        1 MOL     -0.476387
      2 C2          0.9330   -2.5510    4.7270 c         1 MOL      0.737764
      3 O1          0.6410   -1.6410    3.9750 o         1 MOL     -0.625580
      4 H1          0.6730   -3.4710    6.6580 hc        1 MOL      0.127690
      5 H2          0.2820   -1.7350    6.6130 hc        1 MOL      0.127690
      6 H3         -0.8380   -2.9200    5.8970 hc        1 MOL      0.127690
      7 N1          1.8620   -3.4230    4.3610 n         1 MOL     -0.627848
      8 C3          2.5240   -3.3710    3.0450 c3        1 MOL      0.176768
      9 C4          2.5050   -4.7080    2.3120 c         1 MOL      0.421174
     10 O2          3.1190   -5.6190    2.8240 o         1 MOL     -0.576607
     11 C5          3.9360   -2.8080    3.2200 c3        1 MOL     -0.183652
     12 C6          4.6050   -2.5360    1.7990 c         1 MOL      0.663388
     13 O3          5.8720   -2.3770    1.7250 o         1 MOL     -0.687260
     14 O4          3.9050   -2.2960    0.7960 o         1 MOL     -0.687260
     15 H4          2.2440   -4.1050    4.9960 hn        1 MOL      0.327853
     16 H5          1.9440   -2.7030    2.4240 h1        1 MOL      0.123829
     17 H6          4.5670   -3.3720    3.9050 hc        1 MOL      0.035402
     18 H7          3.8150   -1.8570    3.7430 hc        1 MOL      0.035402
     19 N2          1.9450   -4.7060    1.0990 n         1 MOL      0.150659
     20 C7          1.9680   -5.8760    0.2270 c3        1 MOL     -0.402786
     21 C8          2.7100   -5.6140   -1.1420 c         1 MOL      0.525169
     22 O5          2.7910   -6.5220   -1.9950 o         1 MOL     -0.581050
     23 C9          0.5550   -6.4410   -0.0020 c3        1 MOL      0.356679
     24 C10        -0.2670   -5.2600   -0.6270 c3        1 MOL      0.071576
     25 C11        -0.1300   -6.9630    1.2170 c3        1 MOL     -0.162867
     26 C12        -1.5560   -5.6840   -1.3220 c3        1 MOL     -0.251083
     27 H8          1.3630   -3.9160    0.8690 hn        1 MOL     -0.003182
     28 H9          2.6510   -6.5810    0.7050 h1        1 MOL      0.127657
     29 H10         0.5090   -7.2780   -0.7010 hc        1 MOL     -0.054410
     30 H11         0.3390   -4.7660   -1.3910 hc        1 MOL      0.029596
     31 H12        -0.4940   -4.5610    0.1840 hc        1 MOL      0.029596
     32 H13        -1.1690   -7.1650    0.9710 hc        1 MOL      0.001834
     33 H14         0.4340   -7.8350    1.5670 hc        1 MOL      0.001834
     34 H15        -0.0250   -6.1670    1.9530 hc        1 MOL      0.001834
     35 H16        -1.3980   -6.1600   -2.3010 hc        1 MOL      0.060730
     36 H17        -2.0390   -6.5560   -0.8710 hc        1 MOL      0.060730
     37 H18        -2.3270   -4.9240   -1.2580 hc        1 MOL      0.060730
     38 N3          3.1330   -4.4000   -1.4560 n         1 MOL     -0.310575
     39 C13         3.7260   -4.1030   -2.8420 c3        1 MOL     -0.160479
     40 C14         4.9400   -3.2280   -2.8390 c         1 MOL      0.419240
     41 O6          5.4990   -2.9980   -3.9220 o         1 MOL     -0.494378
     42 C15         2.6650   -3.5020   -3.6850 c3        1 MOL     -0.090765
     43 C16         2.1990   -2.0580   -3.1530 c         1 MOL      0.751831
     44 O7          2.6320   -1.6250   -2.0380 o         1 MOL     -0.697947
     45 O8          1.3160   -1.4480   -3.7680 o         1 MOL     -0.697947
     46 H19         3.1640   -3.6590   -0.7650 hn        1 MOL      0.170918
     47 H20         4.0490   -5.0580   -3.2750 h1        1 MOL      0.148455
     48 H21         1.7790   -4.1320   -3.7050 hc        1 MOL      0.039436
     49 H22         2.8560   -3.2750   -4.7410 hc        1 MOL      0.039436
     50 N4          5.4360   -2.7600   -1.6690 n         1 MOL     -0.132201
     51 C17         6.8240   -2.2410   -1.5810 c3        1 MOL     -0.183567
     52 C18         7.0750   -0.9870   -2.4300 c         1 MOL      0.569146
     53 O9          7.8960   -0.8930   -3.3430 o         1 MOL     -0.569937
     54 H23         4.9190   -2.8080   -0.8110 hn        1 MOL      0.205795
     55 H24         7.5470   -3.0270   -1.7840 h1        1 MOL      0.083396
     56 H25         7.0680   -1.9990   -0.5510 h1        1 MOL      0.083396
     57 N5          6.3960    0.1160   -2.0350 n         1 MOL     -0.450195
     58 C19         6.4110    1.4420   -2.6880 c3        1 MOL      0.197178
     59 C20         6.5720    2.5450   -1.6390 c         1 MOL      0.484213
     60 O10         6.8250    3.7010   -1.9710 o         1 MOL     -0.555427
     61 C21         5.1400    1.5960   -3.4850 c3        1 MOL     -0.219097
     62 C22         3.8580    1.6740   -2.6650 c         1 MOL      0.774478
     63 O11         3.8210    1.3350   -1.4700 o         1 MOL     -0.718638
     64 O12         2.7920    1.9650   -3.3060 o         1 MOL     -0.718638
     65 H26         5.9440    0.0400   -1.1390 hn        1 MOL      0.144688
     66 H27         7.2870    1.7010   -3.2840 h1        1 MOL      0.048532
     67 H28         5.0700    0.8060   -4.2200 hc        1 MOL      0.062795
     68 H29         5.2000    2.5500   -4.0210 hc        1 MOL      0.062795
     69 N6          6.5980    2.2520   -0.3400 n         1 MOL     -0.403385
     70 C23         6.8470    3.2450    0.7510 c3        1 MOL     -0.111325
     71 C24         5.6680    4.2520    1.0650 c         1 MOL      0.424356
     72 O13         5.7480    5.2280    1.7890 o         1 MOL     -0.574793
     73 H30         6.5570    1.2880   -0.0530 hn        1 MOL      0.279103
     74 H31         7.7160    3.8630    0.5580 h1        1 MOL      0.093224
     75 H32         7.1020    2.7020    1.6630 h1        1 MOL      0.093224
     76 N7          4.5160    3.8720    0.5390 n         1 MOL     -0.082234
     77 C25         3.2220    4.4520    0.7840 c3        1 MOL     -0.250701
     78 C26         2.1880    3.4590    1.3610 c         1 MOL      0.602973
     79 O14         2.2960    2.3390    0.9350 o         1 MOL     -0.556560
     80 C27         2.6430    5.1100   -0.4930 c3        1 MOL      0.147467
     81 C28         3.4830    6.3310   -0.8880 c3        1 MOL     -0.362776
     82 C29         3.5390    7.6120    0.0020 c         1 MOL      0.725252
     83 N8          4.7140    7.9400    0.5500 n         1 MOL     -0.835664
     84 O15         2.5790    8.2830    0.2300 o         1 MOL     -0.579417
     85 H33         4.4820    3.0680   -0.0680 hn        1 MOL      0.207367
     86 H34         3.2360    5.2180    1.5600 h1        1 MOL      0.117684
     87 H35         1.5800    5.3540   -0.4830 hc        1 MOL      0.038979
     88 H36         2.7060    4.3810   -1.3100 hc        1 MOL      0.038979
     89 H37         3.0280    6.6900   -1.8170 hc        1 MOL      0.081035
     90 H38         4.4650    5.9630   -1.1680 hc        1 MOL      0.081035
     91 H39         5.4290    7.2230    0.4800 hn        1 MOL      0.367383
     92 H40         4.8690    8.7670    1.1160 hn        1 MOL      0.367383
     93 N9          1.1680    3.8770    2.0780 n         1 MOL     -0.559120
     94 C30        -0.0660    3.1230    2.2480 c3        1 MOL      0.088507
     95 C31        -1.0950    3.6240    1.2760 c         1 MOL      0.574849
     96 O16        -1.3710    4.8620    1.2390 o         1 MOL     -0.602890
     97 C32        -0.5550    3.1690    3.7190 c3        1 MOL      0.242301
     98 C33        -2.0320    2.8590    3.8790 c3        1 MOL     -0.400552
     99 C34         0.1350    2.1010    4.4940 c3        1 MOL     -0.400552
    100 H41         1.0740    4.8360    2.3650 hn        1 MOL      0.287049
    101 H42         0.1050    2.0980    1.9120 h1        1 MOL      0.126466
    102 H43        -0.4590    4.1650    4.1410 hc        1 MOL      0.000830
    103 H44        -2.6360    3.7090    3.5440 hc        1 MOL      0.085307
    104 H45        -2.3220    2.0420    3.2370 hc        1 MOL      0.085307
    105 H46        -2.2280    2.5800    4.9210 hc        1 MOL      0.085307
    106 H47        -0.0550    1.1110    4.0710 hc        1 MOL      0.085307
    107 H48         1.2030    2.2740    4.3020 hc        1 MOL      0.085307
    108 H49        -0.1440    2.0440    5.5420 hc        1 MOL      0.085307
    109 N10        -1.7530    2.6990    0.5990 n         1 MOL     -0.425748
    110 C35        -3.0090    2.9990   -0.1510 c3        1 MOL      0.279659
    111 C36        -4.1980    2.4210    0.5130 c         1 MOL      0.181727
    112 O17        -4.1320    1.5960    1.3840 o         1 MOL     -0.196592
    113 C37        -2.8090    2.5430   -1.6400 c3        1 MOL     -0.355768
    114 C38        -3.0470    1.1300   -1.9270 c         1 MOL      0.609546
    115 N11        -2.0130    0.3280   -2.0790 n         1 MOL     -0.720145
    116 O18        -4.1950    0.7250   -1.9710 o         1 MOL     -0.571966
    117 H50        -1.5480    1.7370    0.8510 hn        1 MOL      0.221720
    118 H51        -3.1980    4.0680   -0.2740 h1        1 MOL      0.019335
    119 H52        -1.7930    2.7170   -1.9830 hc        1 MOL      0.120434
    120 H53        -3.4630    3.1370   -2.2730 hc        1 MOL      0.120434
    121 H54        -1.1000    0.7550   -2.1460 hn        1 MOL      0.376452
    122 H55        -2.1770   -0.6760   -2.1520 hn        1 MOL      0.376452
    123 N12        -5.4160    2.6710   -0.0680 n         1 MOL     -0.236981
    124 C39        -6.7520    2.4030    0.4270 c3        1 MOL     -0.058244
    125 C40        -7.0060    0.9360    0.7090 c         1 MOL      0.512760
    126 O19        -7.6310    0.5670    1.7540 o         1 MOL     -0.592853
    127 C41        -7.7660    3.1090   -0.5180 c3        1 MOL     -0.187311
    128 C42        -7.5630    2.8040   -2.0400 ca        1 MOL      0.003245
    129 C43        -8.2800    1.7060   -2.5890 ca        1 MOL     -0.169745
    130 C44        -6.6540    3.5290   -2.8920 ca        1 MOL     -0.169745
    131 C45        -8.0400    1.2970   -3.9390 ca        1 MOL     -0.278600
    132 C46        -6.5440    3.1500   -4.2260 ca        1 MOL     -0.278600
    133 C47        -7.0980    1.9840   -4.7380 ca        1 MOL      0.438835
    134 O20        -6.8900    1.6650   -6.0480 oh        1 MOL     -0.584406
    135 H56        -5.3940    3.2740   -0.8740 hn        1 MOL      0.189121
    136 H57        -6.9020    2.8100    1.4220 h1        1 MOL      0.080762
    137 H58        -7.7270    4.1980   -0.4560 hc        1 MOL      0.084458
    138 H59        -8.7980    2.8650   -0.2730 hc        1 MOL      0.084458
    139 H60        -8.9750    1.1670   -1.9660 ha        1 MOL      0.144065
    140 H61        -6.0640    4.3490   -2.4960 ha        1 MOL      0.144065
    141 H62        -8.4640    0.4450   -4.4400 ha        1 MOL      0.147753
    142 H63        -5.8340    3.7690   -4.7540 ha        1 MOL      0.147753
    143 H64        -7.1710    0.8020   -6.3320 ho        1 MOL      0.434406
    144 N13        -6.5300    0.0390   -0.1380 n         1 MOL     -0.298338
    145 C48        -6.6380   -1.4490    0.1930 c3        1 MOL     -0.138598
    146 C49        -5.7860   -1.9400    1.3760 c         1 MOL      0.414440
    147 O21        -5.9440   -3.0260    1.8990 o         1 MOL     -0.529835
    148 C50        -6.2340   -2.1210   -1.0830 c3        1 MOL      0.158179
    149 C51        -7.3630   -2.1810   -2.1090 c3        1 MOL     -0.374816
    150 C52        -6.9690   -3.1340   -3.1950 c         1 MOL      0.774104
    151 O22        -7.2890   -4.3220   -3.1800 o         1 MOL     -0.754338
    152 O23        -6.3400   -2.7170   -4.1850 o         1 MOL     -0.754338
    153 H65        -6.0590    0.2920   -0.9940 hn        1 MOL      0.376357
    154 H66        -7.6260   -1.8200    0.4610 h1        1 MOL      0.126240
    155 H67        -5.8990   -3.1170   -0.8060 hc        1 MOL      0.003412
    156 H68        -5.3680   -1.6050   -1.5010 hc        1 MOL      0.003412
    157 H69        -7.4050   -1.1540   -2.4720 hc        1 MOL      0.052904
    158 H70        -8.3110   -2.4230   -1.6460 hc        1 MOL      0.052904
    159 N14        -4.7680   -1.1390    1.7490 n         1 MOL     -0.179743
    160 C53        -3.8270   -1.4560    2.8170 c3        1 MOL     -0.064769
    161 C54        -4.3640   -0.8000    4.1070 c         1 MOL      0.437151
    162 O24        -4.1520   -1.2610    5.2140 o         1 MOL     -0.562722
    163 C55        -2.4180   -1.0580    2.4110 c3        1 MOL      0.169966
    164 C56        -1.9000   -1.6460    1.0830 c3        1 MOL     -0.349830
    165 C57        -0.4840   -1.2520    0.7640 c         1 MOL      0.985736
    166 O25         0.4360   -2.0600    0.5170 o         1 MOL     -0.849936
    167 O26        -0.0830   -0.0670    0.6150 o         1 MOL     -0.849936
    168 H71        -4.6930   -0.3080    1.1830 hn        1 MOL      0.147841
    169 H72        -3.6880   -2.5300    2.9950 h1        1 MOL      0.093570
    170 H73        -1.7530   -1.4270    3.1960 hc        1 MOL      0.018431
    171 H74        -2.2150    0.0130    2.4000 hc        1 MOL      0.018431
    172 H75        -2.5900   -1.1930    0.3710 hc        1 MOL      0.068817
    173 H76        -2.0840   -2.7120    1.0260 hc        1 MOL      0.068817
    174 N15        -5.0510    0.3750    4.0280 n         1 MOL     -0.082241
    175 C58        -5.5580    1.1380    5.2010 c3        1 MOL     -0.262062
    176 H77        -6.4110    1.7450    4.8970 h1        1 MOL      0.096181
    177 H78        -5.8670    0.4430    5.9820 h1        1 MOL      0.096181
    178 H79        -4.7690    1.7860    5.5830 h1        1 MOL      0.096181
    179 H80        -5.1900    0.7130    3.0890 hn        1 MOL      0.078248
    180 Ca1         2.3710   -0.3310    0.0200 Ca        1 MOL      1.802497
    181 O27         2.2260   -0.0230    2.6260 oh        1 MOL     -0.846298
    182 H81         2.6610    0.4310    3.3460 ho        1 MOL      0.405517
    183 H82         1.5470   -0.5430    3.0420 ho        1 MOL      0.405517
    184 O28         0.8370    0.6820   -2.0660 oh        1 MOL     -0.846298
    185 H83         0.8230   -0.0780   -2.6560 ho        1 MOL      0.405517
    186 H84         1.4100    1.3110   -2.4980 ho        1 MOL      0.405517
    187 O29         4.9260    0.2100    0.9370 oh        1 MOL     -0.846298
    188 H85         5.4210   -0.5980    1.0600 ho        1 MOL      0.405517
    189 H86         4.9850    0.6550    1.7730 ho        1 MOL      0.405517
@<TRIPOS>BOND
     1    1    2 1   
     2    1    4 1   
     3    1    5 1   
     4    1    6 1   
     5    2    3 2   
     6    2    7 1   
     7    7    8 1   
     8    7   15 1   
     9    8    9 1   
    10    8   11 1   
    11    8   16 1   
    12    9   10 2   
    13    9   19 1   
    14   11   12 1   
    15   11   17 1   
    16   11   18 1   
    17   12   13 1   
    18   12   14 1   
    19   19   20 1   
    20   19   27 1   
    21   20   21 1   
    22   20   23 1   
    23   20   28 1   
    24   21   22 2   
    25   21   38 1   
    26   23   24 1   
    27   23   25 1   
    28   23   29 1   
    29   24   26 1   
    30   24   30 1   
    31   24   31 1   
    32   25   32 1   
    33   25   33 1   
    34   25   34 1   
    35   26   35 1   
    36   26   36 1   
    37   26   37 1   
    38   38   39 1   
    39   38   46 1   
    40   39   40 1   
    41   39   42 1   
    42   39   47 1   
    43   40   41 2   
    44   40   50 1   
    45   42   43 1   
    46   42   48 1   
    47   42   49 1   
    48   43   44 1   
    49   43   45 1   
    50   50   51 1   
    51   50   54 1   
    52   51   52 1   
    53   51   55 1   
    54   51   56 1   
    55   52   53 2   
    56   52   57 1   
    57   57   58 1   
    58   57   65 1   
    59   58   59 1   
    60   58   61 1   
    61   58   66 1   
    62   59   60 2   
    63   59   69 1   
    64   61   62 1   
    65   61   67 1   
    66   61   68 1   
    67   62   63 1   
    68   62   64 1   
    69   69   70 1   
    70   69   73 1   
    71   70   71 1   
    72   70   74 1   
    73   70   75 1   
    74   71   72 2   
    75   71   76 1   
    76   76   77 1   
    77   76   85 1   
    78   77   78 1   
    79   77   80 1   
    80   77   86 1   
    81   78   79 2   
    82   78   93 1   
    83   80   81 1   
    84   80   87 1   
    85   80   88 1   
    86   81   82 1   
    87   81   89 1   
    88   81   90 1   
    89   82   83 1   
    90   82   84 2   
    91   83   91 1   
    92   83   92 1   
    93   93   94 1   
    94   93  100 1   
    95   94   95 1   
    96   94   97 1   
    97   94  101 1   
    98   95   96 2   
    99   95  109 1   
   100   97   98 1   
   101   97   99 1   
   102   97  102 1   
   103   98  103 1   
   104   98  104 1   
   105   98  105 1   
   106   99  106 1   
   107   99  107 1   
   108   99  108 1   
   109  109  110 1   
   110  109  117 1   
   111  110  111 1   
   112  110  113 1   
   113  110  118 1   
   114  111  112 2   
   115  111  123 1   
   116  113  114 1   
   117  113  119 1   
   118  113  120 1   
   119  114  115 1   
   120  114  116 2   
   121  115  121 1   
   122  115  122 1   
   123  123  124 1   
   124  123  135 1   
   125  124  125 1   
   126  124  127 1   
   127  124  136 1   
   128  125  126 2   
   129  125  144 1   
   130  127  128 1   
   131  127  137 1   
   132  127  138 1   
   133  128  129 ar  
   134  128  130 ar  
   135  129  131 ar  
   136  129  139 1   
   137  130  132 ar  
   138  130  140 1   
   139  131  133 ar  
   140  131  141 1   
   141  132  133 ar  
   142  132  142 1   
   143  133  134 1   
   144  134  143 1   
   145  144  145 1   
   146  144  153 1   
   147  145  146 1   
   148  145  148 1   
   149  145  154 1   
   150  146  147 2   
   151  146  159 1   
   152  148  149 1   
   153  148  155 1   
   154  148  156 1   
   155  149  150 1   
   156  149  157 1   
   157  149  158 1   
   158  150  151 1   
   159  150  152 1   
   160  159  160 1   
   161  159  168 1   
   162  160  161 1   
   163  160  163 1   
   164  160  169 1   
   165  161  162 2   
   166  161  174 1   
   167  163  164 1   
   168  163  170 1   
   169  163  171 1   
   170  164  165 1   
   171  164  172 1   
   172  164  173 1   
   173  165  166 1   
   174  165  167 1   
   175  174  175 1   
   176  174  179 1   
   177  175  176 1   
   178  175  177 1   
   179  175  178 1   
   180  181  182 1   
   181  181  183 1   
   182  184  185 1   
   183  184  186 1   
   184  187  188 1   
   185  187  189 1   
@<TRIPOS>SUBSTRUCTURE
     1 MOL         1 TEMP              0 ****  ****    0 ROOT
