@<TRIPOS>MOLECULE
MOL
  189   185     1     0     0
SMALL
resp


@<TRIPOS>ATOM
      1 C1         -0.0260    4.3860    5.9410 c3        1 MOL     -0.377870
      2 C2         -0.5440    3.7210    4.6200 c         1 MOL      0.780150
      3 O1         -0.6820    2.5350    4.5680 o         1 MOL     -0.594213
      4 H1         -0.6050    4.0130    6.7850 hc        1 MOL      0.095070
      5 H2          1.0260    4.1390    6.0840 hc        1 MOL      0.095070
      6 H3         -0.1390    5.4680    5.8720 hc        1 MOL      0.095070
      7 N1         -0.7750    4.5400    3.5240 n         1 MOL     -0.659117
      8 C3         -1.4940    4.1340    2.3260 c3        1 MOL      0.158375
      9 C4         -1.4220    5.0950    1.1640 c         1 MOL      0.498434
     10 O2         -1.6260    6.3040    1.3260 o         1 MOL     -0.604021
     11 C5         -2.9910    4.0320    2.6440 c3        1 MOL     -0.094173
     12 C6         -3.8240    3.4330    1.4470 c         1 MOL      0.646874
     13 O3         -5.0260    3.8100    1.2690 o         1 MOL     -0.676986
     14 O4         -3.2440    2.6730    0.6420 o         1 MOL     -0.676986
     15 H4         -0.7330    5.5430    3.6200 hn        1 MOL      0.310836
     16 H5         -1.1700    3.1470    1.9980 h1        1 MOL      0.122084
     17 H6         -3.4040    4.9990    2.9100 hc        1 MOL     -0.000286
     18 H7         -3.1740    3.4150    3.5280 hc        1 MOL     -0.000286
     19 N2         -1.2210    4.6220   -0.0500 n         1 MOL     -0.060701
     20 C7         -1.2030    5.5030   -1.2540 c3        1 MOL     -0.265684
     21 C8         -2.4920    5.2540   -2.1000 c         1 MOL      0.719939
     22 O5         -2.9840    6.1300   -2.7910 o         1 MOL     -0.619197
     23 C9          0.1260    5.2450   -2.0250 c3        1 MOL      0.293018
     24 C10         1.1830    5.7510   -0.9340 c3        1 MOL     -0.150193
     25 C11         0.0840    6.0230   -3.3710 c3        1 MOL     -0.391058
     26 C12         2.6180    5.6640   -1.3510 c3        1 MOL     -0.087041
     27 H8         -1.0890    3.6320   -0.1750 hn        1 MOL     -0.053548
     28 H9         -1.1330    6.5740   -1.0810 h1        1 MOL      0.112987
     29 H10         0.4630    4.2340   -2.2720 hc        1 MOL     -0.001001
     30 H11         1.1070    5.2500    0.0330 hc        1 MOL      0.052513
     31 H12         0.9920    6.8210   -0.8570 hc        1 MOL      0.052513
     32 H13        -0.0760    7.0860   -3.1850 hc        1 MOL      0.086977
     33 H14         1.0210    5.8880   -3.9220 hc        1 MOL      0.086977
     34 H15        -0.6690    5.6870   -4.0770 hc        1 MOL      0.086977
     35 H16         3.2690    6.0770   -0.5780 hc        1 MOL      0.020434
     36 H17         2.9720    4.6390   -1.4150 hc        1 MOL      0.020434
     37 H18         2.8460    6.1700   -2.2890 hc        1 MOL      0.020434
     38 N3         -3.0410    4.0350   -2.0520 n         1 MOL     -0.546310
     39 C13        -3.8640    3.4580   -3.1580 c3        1 MOL      0.056141
     40 C14        -5.2360    2.8600   -2.7130 c         1 MOL      0.353763
     41 O6         -6.1410    2.7420   -3.5370 o         1 MOL     -0.584608
     42 C15        -3.1080    2.4460   -4.0200 c3        1 MOL     -0.208916
     43 C16        -2.3880    1.3600   -3.2670 c         1 MOL      0.668732
     44 O7         -2.4990    1.2340   -2.0090 o         1 MOL     -0.688798
     45 O8         -1.5590    0.5860   -3.8750 o         1 MOL     -0.688798
     46 H19        -2.7060    3.3120   -1.4440 hn        1 MOL      0.468333
     47 H20        -4.1640    4.2430   -3.8440 h1        1 MOL      0.100362
     48 H21        -2.3900    2.9940   -4.6190 hc        1 MOL      0.060623
     49 H22        -3.7780    1.9980   -4.7600 hc        1 MOL      0.060623
     50 N4         -5.4830    2.7010   -1.4580 n         1 MOL      0.081934
     51 C17        -6.8570    2.4950   -0.8920 c3        1 MOL     -0.269936
     52 C18        -7.3940    1.0740   -1.1210 c         1 MOL      0.493932
     53 O9         -8.6390    0.9190   -1.1440 o         1 MOL     -0.599110
     54 H23        -4.6540    2.6770   -0.8880 hn        1 MOL     -0.044266
     55 H24        -7.4490    3.1970   -1.4980 h1        1 MOL      0.133404
     56 H25        -6.8680    2.6970    0.1740 h1        1 MOL      0.133404
     57 N5         -6.5450    0.0420   -1.3580 n         1 MOL     -0.145684
     58 C19        -6.9180   -1.3410   -1.9030 c3        1 MOL     -0.152268
     59 C20        -7.2760   -2.3010   -0.8050 c         1 MOL      0.449065
     60 O10        -7.6540   -3.4170   -1.0630 o         1 MOL     -0.527951
     61 C21        -5.7580   -1.8970   -2.7320 c3        1 MOL     -0.185318
     62 C22        -4.4040   -1.7840   -2.0710 c         1 MOL      0.747446
     63 O11        -4.1690   -1.3040   -0.9610 o         1 MOL     -0.671310
     64 O12        -3.4220   -2.1440   -2.7970 o         1 MOL     -0.671310
     65 H26        -5.5400    0.1130   -1.3420 hn        1 MOL      0.155759
     66 H27        -7.7840   -1.2920   -2.5660 h1        1 MOL      0.136067
     67 H28        -5.7570   -1.4160   -3.7080 hc        1 MOL      0.077880
     68 H29        -5.9380   -2.9530   -2.9060 hc        1 MOL      0.077880
     69 N6         -7.1180   -1.9020    0.4470 n         1 MOL     -0.228448
     70 C23        -7.2220   -2.7100    1.6240 c3        1 MOL     -0.131570
     71 C24        -6.0780   -3.6390    1.9210 c         1 MOL      0.489722
     72 O13        -6.2680   -4.7280    2.5860 o         1 MOL     -0.586086
     73 H30        -6.9240   -0.9120    0.5410 hn        1 MOL      0.188772
     74 H31        -8.1720   -3.2310    1.7340 h1        1 MOL      0.080400
     75 H32        -7.1560   -1.9870    2.4520 h1        1 MOL      0.080400
     76 N7         -4.9160   -3.3660    1.3130 n         1 MOL     -0.423706
     77 C25        -3.6870   -4.2260    1.3260 c3        1 MOL      0.053203
     78 C26        -2.4470   -3.3810    1.6470 c         1 MOL      0.554007
     79 O14        -2.4840   -2.1730    1.5600 o         1 MOL     -0.631247
     80 C27        -3.5460   -4.8570   -0.0970 c3        1 MOL     -0.105187
     81 C28        -4.6210   -5.8910   -0.4950 c3        1 MOL     -0.210283
     82 C29        -4.6490   -6.1640   -2.0330 c         1 MOL      0.655404
     83 N8         -5.7870   -6.4670   -2.6530 n         1 MOL     -0.817292
     84 O15        -3.6040   -6.2130   -2.7120 o         1 MOL     -0.557267
     85 H33        -4.8800   -2.5300    0.7360 hn        1 MOL      0.364535
     86 H34        -3.7170   -4.9820    2.1150 h1        1 MOL      0.049137
     87 H35        -2.5180   -5.1830   -0.2580 hc        1 MOL      0.068711
     88 H36        -3.7020   -3.9890   -0.7310 hc        1 MOL      0.068711
     89 H37        -5.5970   -5.5170   -0.1820 hc        1 MOL      0.088158
     90 H38        -4.4600   -6.8630   -0.0380 hc        1 MOL      0.088158
     91 H39        -6.6870   -6.2590   -2.2730 hn        1 MOL      0.360704
     92 H40        -5.6630   -6.5080   -3.6580 hn        1 MOL      0.360704
     93 N9         -1.3000   -3.9810    2.0020 n         1 MOL     -0.342627
     94 C30        -0.0640   -3.1930    2.3230 c3        1 MOL     -0.038837
     95 C31         0.9850   -3.5790    1.2940 c         1 MOL      0.470553
     96 O16         1.2240   -4.7090    0.9930 o         1 MOL     -0.574283
     97 C32         0.3160   -3.5140    3.7370 c3        1 MOL      0.277059
     98 C33         1.6800   -3.0140    4.0900 c3        1 MOL     -0.216924
     99 C34        -0.7840   -3.0410    4.7190 c3        1 MOL     -0.216924
    100 H41        -1.3160   -4.9760    2.1810 hn        1 MOL      0.240547
    101 H42        -0.2400   -2.1160    2.3710 h1        1 MOL      0.125188
    102 H43         0.3540   -4.5990    3.8170 hc        1 MOL     -0.055173
    103 H44         2.4480   -3.2230    3.3470 hc        1 MOL      0.033251
    104 H45         1.5680   -1.9340    3.9980 hc        1 MOL      0.033251
    105 H46         1.8590   -3.4230    5.0820 hc        1 MOL      0.033251
    106 H47        -1.6630   -3.6450    4.4970 hc        1 MOL      0.033251
    107 H48        -0.5620   -3.1400    5.7820 hc        1 MOL      0.033251
    108 H49        -1.0330   -1.9840    4.5980 hc        1 MOL      0.033251
    109 N10         1.5000   -2.5330    0.6880 n         1 MOL     -0.008961
    110 C35         2.5440   -2.6160   -0.2690 c3        1 MOL     -0.048896
    111 C36         3.8570   -2.4490    0.4610 c         1 MOL      0.142388
    112 O17         3.9360   -1.8750    1.5270 o         1 MOL     -0.153662
    113 C37         2.3160   -1.4130   -1.2400 c3        1 MOL     -0.084590
    114 C38         3.1810   -1.4000   -2.4130 c         1 MOL      0.603578
    115 N11         3.3400   -0.2970   -3.0620 n         1 MOL     -0.764151
    116 O18         3.8910   -2.2920   -2.7090 o         1 MOL     -0.514161
    117 H50         1.1940   -1.5910    0.8990 hn        1 MOL     -0.008908
    118 H51         2.3920   -3.5830   -0.7370 h1        1 MOL      0.089139
    119 H52         2.5940   -0.5310   -0.6540 hc        1 MOL      0.058627
    120 H53         1.2620   -1.3250   -1.5020 hc        1 MOL      0.058627
    121 H54         2.6280    0.4220   -3.0460 hn        1 MOL      0.367135
    122 H55         4.1020   -0.2220   -3.7190 hn        1 MOL      0.367135
    123 N12         5.0150   -2.8960   -0.1210 n         1 MOL     -0.182774
    124 C39         6.3790   -2.8820    0.5240 c3        1 MOL     -0.013928
    125 C40         6.7440   -1.4040    0.8930 c         1 MOL      0.517891
    126 O19         7.2320   -1.1960    1.9780 o         1 MOL     -0.556287
    127 C41         7.3450   -3.6320   -0.4570 c3        1 MOL     -0.109915
    128 C42         7.4690   -3.0180   -1.8170 ca        1 MOL      0.018286
    129 C43         6.8520   -3.5600   -2.8850 ca        1 MOL     -0.183318
    130 C44         8.3870   -1.9310   -2.0710 ca        1 MOL     -0.183318
    131 C45         7.0850   -3.1130   -4.2410 ca        1 MOL     -0.230900
    132 C46         8.6970   -1.5530   -3.4280 ca        1 MOL     -0.230900
    133 C47         8.0000   -2.1130   -4.4980 ca        1 MOL      0.314514
    134 O20         8.0750   -1.5960   -5.7100 oh        1 MOL     -0.500567
    135 H56         4.8750   -3.3120   -1.0380 hn        1 MOL      0.167605
    136 H57         6.2680   -3.4760    1.4270 h1        1 MOL      0.060472
    137 H58         6.9870   -4.6550   -0.5450 hc        1 MOL      0.058743
    138 H59         8.3300   -3.7450   -0.0170 hc        1 MOL      0.058743
    139 H60         6.2700   -4.4580   -2.7720 ha        1 MOL      0.141440
    140 H61         8.8940   -1.4660   -1.2450 ha        1 MOL      0.141440
    141 H62         6.6760   -3.7290   -5.0260 ha        1 MOL      0.109540
    142 H63         9.2870   -0.6540   -3.5720 ha        1 MOL      0.109540
    143 H64         8.7930   -0.9600   -5.8040 ho        1 MOL      0.381269
    144 N13         6.5220   -0.3940   -0.0160 n         1 MOL     -0.264844
    145 C48         6.5520    1.0450    0.2400 c3        1 MOL     -0.108632
    146 C49         5.6110    1.5720    1.4150 c         1 MOL      0.298631
    147 O21         5.9120    2.6260    2.0040 o         1 MOL     -0.490887
    148 C50         6.3280    1.7490   -1.0980 c3        1 MOL     -0.022169
    149 C51         7.4170    1.5740   -2.1700 c3        1 MOL     -0.042122
    150 C52         8.7450    2.1800   -1.7350 c         1 MOL      0.684349
    151 O22         9.8270    1.6240   -2.1330 o         1 MOL     -0.710921
    152 O23         8.8020    3.1410   -0.9580 o         1 MOL     -0.710921
    153 H65         5.9220   -0.6340   -0.7950 hn        1 MOL      0.325830
    154 H66         7.5980    1.2690    0.4570 h1        1 MOL      0.164414
    155 H67         6.3680    2.7820   -0.7940 hc        1 MOL      0.001051
    156 H68         5.3980    1.3460   -1.4980 hc        1 MOL      0.001051
    157 H69         7.1500    2.0240   -3.1240 hc        1 MOL     -0.028830
    158 H70         7.5910    0.5050   -2.3360 hc        1 MOL     -0.028830
    159 N14         4.5460    0.8540    1.7910 n         1 MOL     -0.047097
    160 C53         3.6830    1.2470    2.9690 c3        1 MOL     -0.037161
    161 C54         4.0910    0.4250    4.2330 c         1 MOL      0.387590
    162 O24         4.0020    0.9630    5.3280 o         1 MOL     -0.567843
    163 C55         2.1900    0.9200    2.6690 c3        1 MOL      0.183339
    164 C56         1.6210    1.6930    1.4500 c3        1 MOL      0.036867
    165 C57         0.3850    1.0410    0.7860 c         1 MOL      0.518759
    166 O25        -0.4070    1.7480    0.0440 o         1 MOL     -0.609401
    167 O26         0.0970   -0.1710    0.9630 o         1 MOL     -0.609401
    168 H71         4.3070    0.0850    1.1850 hn        1 MOL      0.067638
    169 H72         3.7860    2.3180    3.1240 h1        1 MOL      0.079519
    170 H73         1.5950    1.3230    3.4970 hc        1 MOL     -0.048353
    171 H74         2.0720   -0.1580    2.5880 hc        1 MOL     -0.048353
    172 H75         2.4460    1.7330    0.7310 hc        1 MOL     -0.015698
    173 H76         1.4090    2.7030    1.7940 hc        1 MOL     -0.015698
    174 N15         4.6330   -0.7550    4.0960 n         1 MOL      0.048453
    175 C58         5.0680   -1.5530    5.2310 c3        1 MOL     -0.234097
    176 H77         4.2960   -1.5400    6.0010 h1        1 MOL      0.080987
    177 H78         5.2420   -2.5790    4.9090 h1        1 MOL      0.080987
    178 H79         5.9910   -1.1370    5.6360 h1        1 MOL      0.080987
    179 H80         4.6360   -1.1090    3.1550 hn        1 MOL     -0.021375
    180 Ca1        -2.5030    0.1790    0.3550 Ca        1 MOL      1.756750
    181 O27        -2.0670    0.8820    2.9420 oh        1 MOL     -0.911863
    182 H81        -2.5690    0.2760    3.5040 ho        1 MOL      0.428142
    183 H82        -1.5390    1.3870    3.5620 ho        1 MOL      0.428142
    184 O28        -4.7280    0.2220    1.8300 oh        1 MOL     -0.911863
    185 H83        -4.7590    0.1470    2.7830 ho        1 MOL      0.428142
    186 H84        -5.4890    0.7630    1.6140 ho        1 MOL      0.428142
    187 O29        -1.3160   -1.2590   -1.5600 oh        1 MOL     -0.911863
    188 H85        -2.0020   -1.8160   -1.9380 ho        1 MOL      0.428142
    189 H86        -1.2300   -0.5300   -2.1660 ho        1 MOL      0.428142
@<TRIPOS>BOND
     1    1    2 1   
     2    1    4 1   
     3    1    5 1   
     4    1    6 1   
     5    2    3 2   
     6    2    7 1   
     7    7    8 1   
     8    7   15 1   
     9    8    9 1   
    10    8   11 1   
    11    8   16 1   
    12    9   10 2   
    13    9   19 1   
    14   11   12 1   
    15   11   17 1   
    16   11   18 1   
    17   12   13 1   
    18   12   14 1   
    19   19   20 1   
    20   19   27 1   
    21   20   21 1   
    22   20   23 1   
    23   20   28 1   
    24   21   22 2   
    25   21   38 1   
    26   23   24 1   
    27   23   25 1   
    28   23   29 1   
    29   24   26 1   
    30   24   30 1   
    31   24   31 1   
    32   25   32 1   
    33   25   33 1   
    34   25   34 1   
    35   26   35 1   
    36   26   36 1   
    37   26   37 1   
    38   38   39 1   
    39   38   46 1   
    40   39   40 1   
    41   39   42 1   
    42   39   47 1   
    43   40   41 2   
    44   40   50 1   
    45   42   43 1   
    46   42   48 1   
    47   42   49 1   
    48   43   44 1   
    49   43   45 1   
    50   50   51 1   
    51   50   54 1   
    52   51   52 1   
    53   51   55 1   
    54   51   56 1   
    55   52   53 2   
    56   52   57 1   
    57   57   58 1   
    58   57   65 1   
    59   58   59 1   
    60   58   61 1   
    61   58   66 1   
    62   59   60 2   
    63   59   69 1   
    64   61   62 1   
    65   61   67 1   
    66   61   68 1   
    67   62   63 1   
    68   62   64 1   
    69   69   70 1   
    70   69   73 1   
    71   70   71 1   
    72   70   74 1   
    73   70   75 1   
    74   71   72 2   
    75   71   76 1   
    76   76   77 1   
    77   76   85 1   
    78   77   78 1   
    79   77   80 1   
    80   77   86 1   
    81   78   79 2   
    82   78   93 1   
    83   80   81 1   
    84   80   87 1   
    85   80   88 1   
    86   81   82 1   
    87   81   89 1   
    88   81   90 1   
    89   82   83 1   
    90   82   84 2   
    91   83   91 1   
    92   83   92 1   
    93   93   94 1   
    94   93  100 1   
    95   94   95 1   
    96   94   97 1   
    97   94  101 1   
    98   95   96 2   
    99   95  109 1   
   100   97   98 1   
   101   97   99 1   
   102   97  102 1   
   103   98  103 1   
   104   98  104 1   
   105   98  105 1   
   106   99  106 1   
   107   99  107 1   
   108   99  108 1   
   109  109  110 1   
   110  109  117 1   
   111  110  111 1   
   112  110  113 1   
   113  110  118 1   
   114  111  112 2   
   115  111  123 1   
   116  113  114 1   
   117  113  119 1   
   118  113  120 1   
   119  114  115 1   
   120  114  116 2   
   121  115  121 1   
   122  115  122 1   
   123  123  124 1   
   124  123  135 1   
   125  124  125 1   
   126  124  127 1   
   127  124  136 1   
   128  125  126 2   
   129  125  144 1   
   130  127  128 1   
   131  127  137 1   
   132  127  138 1   
   133  128  129 ar  
   134  128  130 ar  
   135  129  131 ar  
   136  129  139 1   
   137  130  132 ar  
   138  130  140 1   
   139  131  133 ar  
   140  131  141 1   
   141  132  133 ar  
   142  132  142 1   
   143  133  134 1   
   144  134  143 1   
   145  144  145 1   
   146  144  153 1   
   147  145  146 1   
   148  145  148 1   
   149  145  154 1   
   150  146  147 2   
   151  146  159 1   
   152  148  149 1   
   153  148  155 1   
   154  148  156 1   
   155  149  150 1   
   156  149  157 1   
   157  149  158 1   
   158  150  151 1   
   159  150  152 1   
   160  159  160 1   
   161  159  168 1   
   162  160  161 1   
   163  160  163 1   
   164  160  169 1   
   165  161  162 2   
   166  161  174 1   
   167  163  164 1   
   168  163  170 1   
   169  163  171 1   
   170  164  165 1   
   171  164  172 1   
   172  164  173 1   
   173  165  166 1   
   174  165  167 1   
   175  174  175 1   
   176  174  179 1   
   177  175  176 1   
   178  175  177 1   
   179  175  178 1   
   180  181  182 1   
   181  181  183 1   
   182  184  185 1   
   183  184  186 1   
   184  187  188 1   
   185  187  189 1   
@<TRIPOS>SUBSTRUCTURE
     1 MOL         1 TEMP              0 ****  ****    0 ROOT
