@<TRIPOS>MOLECULE
MOL
  179   176     1     0     0
SMALL
resp


@<TRIPOS>ATOM
      1 C1         -2.2950   -2.8530    4.8230 c3        1 MOL     -0.477710
      2 C2         -1.4820   -2.5290    3.5730 c         1 MOL      0.694747
      3 O1         -2.0630   -2.5790    2.4270 o         1 MOL     -0.569780
      4 H1         -3.3410   -2.9860    4.5490 hc        1 MOL      0.134247
      5 H2         -1.9180   -3.7700    5.2750 hc        1 MOL      0.134247
      6 H3         -2.2090   -2.0320    5.5350 hc        1 MOL      0.134247
      7 N1         -0.1520   -2.2890    3.6380 n         1 MOL     -0.645402
      8 C3          0.8040   -2.1950    2.4810 c3        1 MOL      0.232858
      9 C4          1.0600   -3.6770    1.9590 c         1 MOL      0.453873
     10 O2          2.0670   -4.2700    2.3050 o         1 MOL     -0.518464
     11 C5          2.0230   -1.3580    2.8350 c3        1 MOL      0.093015
     12 C6          2.9920   -1.1190    1.6890 c         1 MOL      0.650171
     13 O3          4.1340   -0.7300    1.9810 o         1 MOL     -0.654725
     14 O4          2.6450   -1.4800    0.5340 o         1 MOL     -0.654725
     15 H4          0.1920   -2.4170    4.5730 hn        1 MOL      0.322698
     16 H5          0.2930   -1.6860    1.6710 h1        1 MOL     -0.089658
     17 H6          2.5520   -1.7540    3.7020 hc        1 MOL     -0.013034
     18 H7          1.7120   -0.3790    3.1950 hc        1 MOL     -0.013034
     19 N2          0.1500   -4.1870    1.1090 n         1 MOL     -0.315236
     20 C7          0.0240   -5.5920    0.6350 c3        1 MOL     -0.045625
     21 C8          1.1390   -6.0770   -0.2820 c         1 MOL      0.433936
     22 O5          1.1890   -7.2810   -0.5550 o         1 MOL     -0.570857
     23 C9         -1.3720   -5.7210    0.0110 c3        1 MOL     -0.057229
     24 C10        -2.5730   -5.7190    1.0310 c3        1 MOL     -0.124554
     25 C11        -3.9100   -5.3590    0.3190 c3        1 MOL      0.005690
     26 C12        -4.6680   -6.5700   -0.0990 c3        1 MOL      0.071667
     27 N3         -5.6660   -6.3110   -1.1800 n4        1 MOL     -0.490544
     28 H8         -0.6410   -3.6390    0.8330 hn        1 MOL      0.370804
     29 H9         -0.0060   -6.3050    1.4610 h1        1 MOL      0.103641
     30 H10        -1.5450   -6.6310   -0.5680 hc        1 MOL      0.029617
     31 H11        -1.5530   -4.8250   -0.5790 hc        1 MOL      0.029617
     32 H12        -2.4630   -4.9220    1.7730 hc        1 MOL      0.049554
     33 H13        -2.6480   -6.7180    1.4620 hc        1 MOL      0.049554
     34 H14        -3.7090   -4.6830   -0.5110 hc        1 MOL      0.044010
     35 H15        -4.6160   -4.8020    0.9320 hc        1 MOL      0.044010
     36 H16        -5.1110   -7.0600    0.7770 hx        1 MOL      0.075122
     37 H17        -3.8960   -7.2750   -0.4160 hx        1 MOL      0.075122
     38 H18        -6.4330   -5.7730   -0.7790 hn        1 MOL      0.365896
     39 H19        -5.1950   -5.8270   -1.9240 hn        1 MOL      0.365896
     40 H20        -5.9740   -7.2020   -1.5400 hn        1 MOL      0.365896
     41 N4          2.0940   -5.2480   -0.6470 n         1 MOL     -0.088250
     42 C13         3.3410   -5.6020   -1.3280 c3        1 MOL     -0.009518
     43 C14         4.6950   -5.1190   -0.6980 c         1 MOL      0.386002
     44 O6          5.7360   -5.7020   -0.9070 o         1 MOL     -0.508454
     45 C15         3.3490   -5.1660   -2.8290 c3        1 MOL     -0.342591
     46 C16         2.9500   -3.7410   -3.0570 c         1 MOL      0.872004
     47 O7          2.8880   -2.8640   -2.1630 o         1 MOL     -0.766813
     48 O8          2.6030   -3.3810   -4.2040 o         1 MOL     -0.766813
     49 H21         1.9260   -4.2730   -0.4370 hn        1 MOL      0.091218
     50 H22         3.5040   -6.6820   -1.2650 h1        1 MOL      0.104684
     51 H23         2.6820   -5.7550   -3.4620 hc        1 MOL      0.104331
     52 H24         4.3830   -5.2220   -3.1690 hc        1 MOL      0.104331
     53 N5          4.6280   -4.0200    0.0810 n         1 MOL      0.057631
     54 C17         5.7590   -3.5260    0.9530 c3        1 MOL     -0.261364
     55 C18         6.5460   -2.5030    0.1730 c         1 MOL      0.709346
     56 O9          7.6270   -2.7730   -0.2840 o         1 MOL     -0.570942
     57 H25         3.7440   -3.5670    0.2340 hn        1 MOL     -0.020121
     58 H26         6.4020   -4.3700    1.2180 h1        1 MOL      0.107131
     59 H27         5.3860   -3.0030    1.8360 h1        1 MOL      0.107131
     60 N6          6.0630   -1.2620    0.1480 n         1 MOL     -0.507047
     61 C19         6.7580   -0.1690   -0.5810 c3        1 MOL      0.060977
     62 C20         6.6770    1.0630    0.2390 c         1 MOL      0.403368
     63 O10         7.3280    2.0480   -0.0590 o         1 MOL     -0.533774
     64 C21         6.0720    0.0150   -1.9770 c3        1 MOL     -0.271560
     65 C22         4.8790    0.9560   -2.1240 c         1 MOL      0.420781
     66 N7          5.0430    1.9360   -2.8880 n         1 MOL     -0.533152
     67 O11         3.8810    0.9490   -1.3930 o         1 MOL     -0.500312
     68 H28         5.1370   -1.0760    0.5200 hn        1 MOL      0.206380
     69 H29         7.8180   -0.4120   -0.6820 h1        1 MOL      0.130618
     70 H30         5.8410   -1.0050   -2.2790 hc        1 MOL      0.120204
     71 H31         6.8610    0.3080   -2.6590 hc        1 MOL      0.120204
     72 H32         5.9320    2.0650   -3.3430 hn        1 MOL      0.324693
     73 H33         4.3200    2.6450   -2.8660 hn        1 MOL      0.324693
     74 N8          6.0490    1.0850    1.4070 n         1 MOL     -0.146080
     75 C23         5.9550    2.1520    2.4100 c3        1 MOL     -0.221293
     76 C24         4.7160    3.0850    2.1070 c         1 MOL      0.495743
     77 O12         4.4450    4.0850    2.8200 o         1 MOL     -0.604220
     78 H34         5.6650    0.1670    1.6060 hn        1 MOL      0.206606
     79 H35         6.9060    2.6880    2.4900 h1        1 MOL      0.130337
     80 H36         5.6780    1.8840    3.4310 h1        1 MOL      0.130337
     81 N9          3.8520    2.8280    1.1660 n         1 MOL     -0.130246
     82 C25         2.6130    3.5970    0.9160 c3        1 MOL      0.255979
     83 C26         1.3980    2.7260    0.8820 c         1 MOL      0.224488
     84 O13         1.4780    1.5370    0.5470 o         1 MOL     -0.559721
     85 C27         2.7460    4.3570   -0.3640 c3        1 MOL      0.184475
     86 C28         3.8790    5.4070   -0.4380 ca        1 MOL      0.022956
     87 C29         5.1720    5.1060   -0.9000 ca        1 MOL     -0.332634
     88 C30         3.5540    6.7170    0.0190 ca        1 MOL     -0.332634
     89 C31         6.0920    6.1500   -0.9520 ca        1 MOL      0.024489
     90 C32         4.4930    7.7310   -0.0220 ca        1 MOL      0.024489
     91 C33         5.6890    7.4620   -0.6120 ca        1 MOL      0.094496
     92 O14         6.5760    8.4890   -0.7580 oh        1 MOL     -0.450521
     93 H37         4.0030    1.9570    0.6680 hn        1 MOL      0.141918
     94 H38         2.4980    4.3250    1.7160 h1        1 MOL      0.013824
     95 H39         1.8550    4.9510   -0.5610 hc        1 MOL     -0.044254
     96 H40         2.8560    3.6530   -1.1990 hc        1 MOL     -0.044254
     97 H41         5.4380    4.1100   -1.2140 ha        1 MOL      0.153642
     98 H42         2.5410    6.8430    0.3610 ha        1 MOL      0.153642
     99 H43         7.0530    6.0380   -1.4410 ha        1 MOL      0.085347
    100 H44         4.2430    8.7590    0.2090 ha        1 MOL      0.085347
    101 H45         6.1070    9.3170   -0.6440 ho        1 MOL      0.346021
    102 N10         0.2650    3.2800    1.2980 n         1 MOL     -0.203699
    103 C34        -1.0000    2.7490    1.0110 c3        1 MOL     -0.022227
    104 C35        -1.9930    3.6790    0.3240 c         1 MOL      0.355906
    105 O15        -2.0350    4.9340    0.5540 o         1 MOL     -0.545154
    106 C36        -1.6540    2.2450    2.2980 c3        1 MOL      0.013938
    107 C37        -2.1450    3.3760    3.2400 c3        1 MOL      0.066786
    108 C38        -0.7110    1.2120    3.0070 c3        1 MOL      0.035420
    109 C39        -2.9290    2.9410    4.4610 c3        1 MOL     -0.200948
    110 H46         0.3010    4.1990    1.7200 hn        1 MOL      0.210644
    111 H47        -0.8740    1.9040    0.3360 h1        1 MOL      0.177789
    112 H48        -2.5140    1.6740    1.9500 hc        1 MOL     -0.031994
    113 H49        -2.8480    3.9850    2.6680 hc        1 MOL      0.023498
    114 H50        -1.2860    3.9470    3.5870 hc        1 MOL      0.023498
    115 H51        -0.3360    0.5290    2.2390 hc        1 MOL      0.000433
    116 H52         0.0920    1.7820    3.4740 hc        1 MOL      0.000433
    117 H53        -1.1700    0.5390    3.7430 hc        1 MOL      0.000433
    118 H54        -3.9040    2.5680    4.1670 hc        1 MOL      0.043839
    119 H55        -2.4070    2.3320    5.1930 hc        1 MOL      0.043839
    120 H56        -3.0890    3.9310    4.8860 hc        1 MOL      0.043839
    121 N11        -2.9090    3.0550   -0.3870 n         1 MOL     -0.105617
    122 C40        -3.9570    3.7610   -1.0390 c3        1 MOL      0.241832
    123 C41        -5.3110    3.5170   -0.4150 c         1 MOL      0.371510
    124 O16        -5.3730    2.6090    0.3940 o         1 MOL     -0.318946
    125 C42        -4.0680    3.4260   -2.4980 c3        1 MOL     -0.257977
    126 O17        -4.3920    2.0610   -2.5850 oh        1 MOL     -0.217060
    127 H57        -2.9160    2.0400   -0.4310 hn        1 MOL     -0.066411
    128 H58        -3.7990    4.8420   -0.9620 h1        1 MOL      0.044772
    129 H59        -3.1010    3.6530   -2.9390 h1        1 MOL      0.100177
    130 H60        -4.8690    4.0120   -2.9370 h1        1 MOL      0.100177
    131 H61        -4.2280    1.7430   -3.4650 ho        1 MOL      0.346874
    132 N12        -6.3410    4.2820   -0.7890 n         1 MOL     -0.496561
    133 C43        -7.7570    3.9080   -0.4600 c3        1 MOL      0.162031
    134 C44        -8.1620    2.5340   -0.9550 c         1 MOL      0.341734
    135 O18        -9.2430    2.0740   -0.5980 o         1 MOL     -0.498376
    136 C45        -8.6670    5.0390   -0.9870 c3        1 MOL     -0.242200
    137 H62        -6.2440    4.9030   -1.5830 hn        1 MOL      0.307287
    138 H63        -7.7690    3.8770    0.6280 h1        1 MOL      0.096452
    139 H64        -8.4070    5.2210   -2.0300 hc        1 MOL      0.085473
    140 H65        -9.7350    4.8870   -0.8610 hc        1 MOL      0.085473
    141 H66        -8.4680    5.9610   -0.4380 hc        1 MOL      0.085473
    142 N13        -7.4360    1.8950   -1.8920 n         1 MOL     -0.260640
    143 C46        -7.7600    0.5400   -2.3160 c3        1 MOL      0.248635
    144 C47        -7.0450   -0.5020   -1.4120 c         1 MOL      0.283822
    145 O19        -7.6520   -1.5250   -1.0330 o         1 MOL     -0.512588
    146 C48        -7.2190    0.4230   -3.7690 c3        1 MOL     -0.281981
    147 H67        -6.5230    2.2760   -2.1190 hn        1 MOL      0.146363
    148 H68        -8.8340    0.3580   -2.2870 h1        1 MOL      0.083409
    149 H69        -7.4720   -0.5970   -4.0340 hc        1 MOL      0.065702
    150 H70        -7.8050    1.1430   -4.3490 hc        1 MOL      0.065702
    151 H71        -6.1620    0.7100   -3.8450 hc        1 MOL      0.065702
    152 N14        -5.7840   -0.2450   -0.9670 n         1 MOL     -0.064148
    153 C49        -5.0570   -1.0710    0.0390 c3        1 MOL     -0.148546
    154 C50        -5.6490   -1.0220    1.4450 c         1 MOL      0.506976
    155 O20        -5.5620   -2.0380    2.1530 o         1 MOL     -0.543560
    156 C51        -3.6230   -0.5500    0.1170 c3        1 MOL      0.040471
    157 C52        -2.8530   -1.2710   -0.9930 c3        1 MOL      0.055726
    158 C53        -1.3850   -1.0200   -1.1540 c         1 MOL      0.606329
    159 O21        -0.5450   -1.9700   -1.0540 o         1 MOL     -0.703362
    160 O22        -0.9100    0.1500   -1.3820 o         1 MOL     -0.703362
    161 H72        -5.3350    0.5800   -1.3320 hn        1 MOL     -0.038947
    162 H73        -5.0650   -2.1320   -0.2160 h1        1 MOL      0.066755
    163 H74        -3.1980   -0.7670    1.1020 hc        1 MOL      0.061149
    164 H75        -3.6710    0.5310   -0.0370 hc        1 MOL      0.061149
    165 H76        -3.1860   -0.7920   -1.9150 hc        1 MOL     -0.030396
    166 H77        -3.0920   -2.3260   -1.1290 hc        1 MOL     -0.030396
    167 N15        -6.1460    0.1610    1.8120 n         1 MOL     -0.099036
    168 C54        -6.7500    0.2740    3.1240 c3        1 MOL     -0.257298
    169 H78        -7.8000   -0.0120    3.0660 h1        1 MOL      0.102455
    170 H79        -6.2320   -0.3860    3.8210 h1        1 MOL      0.102455
    171 H80        -6.6730    1.3030    3.4730 h1        1 MOL      0.102455
    172 H81        -5.8860    1.0090    1.3320 hn        1 MOL      0.110155
    173 Ca1         1.5660   -0.5500   -1.4750 Ca        1 MOL      1.733009
    174 O23         1.4780    1.8380   -2.8680 oh        1 MOL     -0.888932
    175 H82         1.8760    2.4620   -3.4740 ho        1 MOL      0.417116
    176 H83         0.5470    2.0390   -2.9060 ho        1 MOL      0.417116
    177 O24         1.1570   -1.1170   -3.9480 oh        1 MOL     -0.888932
    178 H84         1.5740   -1.9220   -4.2630 ho        1 MOL      0.417116
    179 H85         1.0500   -0.5770   -4.7280 ho        1 MOL      0.417116
@<TRIPOS>BOND
     1    1    2 1   
     2    1    4 1   
     3    1    5 1   
     4    1    6 1   
     5    2    3 2   
     6    2    7 1   
     7    7    8 1   
     8    7   15 1   
     9    8    9 1   
    10    8   11 1   
    11    8   16 1   
    12    9   10 2   
    13    9   19 1   
    14   11   12 1   
    15   11   17 1   
    16   11   18 1   
    17   12   13 1   
    18   12   14 1   
    19   19   20 1   
    20   19   28 1   
    21   20   21 1   
    22   20   23 1   
    23   20   29 1   
    24   21   22 2   
    25   21   41 1   
    26   23   24 1   
    27   23   30 1   
    28   23   31 1   
    29   24   25 1   
    30   24   32 1   
    31   24   33 1   
    32   25   26 1   
    33   25   34 1   
    34   25   35 1   
    35   26   27 1   
    36   26   36 1   
    37   26   37 1   
    38   27   38 1   
    39   27   39 1   
    40   27   40 1   
    41   41   42 1   
    42   41   49 1   
    43   42   43 1   
    44   42   45 1   
    45   42   50 1   
    46   43   44 2   
    47   43   53 1   
    48   45   46 1   
    49   45   51 1   
    50   45   52 1   
    51   46   47 1   
    52   46   48 1   
    53   53   54 1   
    54   53   57 1   
    55   54   55 1   
    56   54   58 1   
    57   54   59 1   
    58   55   56 2   
    59   55   60 1   
    60   60   61 1   
    61   60   68 1   
    62   61   62 1   
    63   61   64 1   
    64   61   69 1   
    65   62   63 2   
    66   62   74 1   
    67   64   65 1   
    68   64   70 1   
    69   64   71 1   
    70   65   66 1   
    71   65   67 2   
    72   66   72 1   
    73   66   73 1   
    74   74   75 1   
    75   74   78 1   
    76   75   76 1   
    77   75   79 1   
    78   75   80 1   
    79   76   77 2   
    80   76   81 1   
    81   81   82 1   
    82   81   93 1   
    83   82   83 1   
    84   82   85 1   
    85   82   94 1   
    86   83   84 2   
    87   83  102 1   
    88   85   86 1   
    89   85   95 1   
    90   85   96 1   
    91   86   87 ar  
    92   86   88 ar  
    93   87   89 ar  
    94   87   97 1   
    95   88   90 ar  
    96   88   98 1   
    97   89   91 ar  
    98   89   99 1   
    99   90   91 ar  
   100   90  100 1   
   101   91   92 1   
   102   92  101 1   
   103  102  103 1   
   104  102  110 1   
   105  103  104 1   
   106  103  106 1   
   107  103  111 1   
   108  104  105 2   
   109  104  121 1   
   110  106  107 1   
   111  106  108 1   
   112  106  112 1   
   113  107  109 1   
   114  107  113 1   
   115  107  114 1   
   116  108  115 1   
   117  108  116 1   
   118  108  117 1   
   119  109  118 1   
   120  109  119 1   
   121  109  120 1   
   122  121  122 1   
   123  121  127 1   
   124  122  123 1   
   125  122  125 1   
   126  122  128 1   
   127  123  124 2   
   128  123  132 1   
   129  125  126 1   
   130  125  129 1   
   131  125  130 1   
   132  126  131 1   
   133  132  133 1   
   134  132  137 1   
   135  133  134 1   
   136  133  136 1   
   137  133  138 1   
   138  134  135 2   
   139  134  142 1   
   140  136  139 1   
   141  136  140 1   
   142  136  141 1   
   143  142  143 1   
   144  142  147 1   
   145  143  144 1   
   146  143  146 1   
   147  143  148 1   
   148  144  145 2   
   149  144  152 1   
   150  146  149 1   
   151  146  150 1   
   152  146  151 1   
   153  152  153 1   
   154  152  161 1   
   155  153  154 1   
   156  153  156 1   
   157  153  162 1   
   158  154  155 2   
   159  154  167 1   
   160  156  157 1   
   161  156  163 1   
   162  156  164 1   
   163  157  158 1   
   164  157  165 1   
   165  157  166 1   
   166  158  159 1   
   167  158  160 1   
   168  167  168 1   
   169  167  172 1   
   170  168  169 1   
   171  168  170 1   
   172  168  171 1   
   173  174  175 1   
   174  174  176 1   
   175  177  178 1   
   176  177  179 1   
@<TRIPOS>SUBSTRUCTURE
     1 MOL         1 TEMP              0 ****  ****    0 ROOT
