@<TRIPOS>MOLECULE
MOL
  189   185     1     0     0
SMALL
resp


@<TRIPOS>ATOM
      1 C1          1.0690   -1.6740    6.7930 c3        1 MOL     -0.275688
      2 C2          1.3430   -1.6490    5.3220 c         1 MOL      0.788221
      3 O1          0.4010   -2.0100    4.6200 o         1 MOL     -0.635108
      4 H1          1.0470   -0.6540    7.1760 hc        1 MOL      0.065118
      5 H2          0.1070   -2.1510    6.9760 hc        1 MOL      0.065118
      6 H3          1.8550   -2.2350    7.3000 hc        1 MOL      0.065118
      7 N1          2.5100   -1.1800    4.8460 n         1 MOL     -0.687171
      8 C3          2.8070   -1.2130    3.3410 c3        1 MOL      0.323615
      9 C4          3.1210   -2.6310    2.8330 c         1 MOL      0.453945
     10 O2          4.0560   -3.2880    3.2820 o         1 MOL     -0.551841
     11 C5          3.9850   -0.2920    2.9780 c3        1 MOL     -0.410837
     12 C6          4.3490   -0.1010    1.4950 c         1 MOL      0.771131
     13 O3          5.4670    0.4840    1.3020 o         1 MOL     -0.631083
     14 O4          3.6730   -0.6690    0.6010 o         1 MOL     -0.631083
     15 H4          3.1930   -0.6680    5.3900 hn        1 MOL      0.343390
     16 H5          1.9630   -0.7970    2.7900 h1        1 MOL     -0.023625
     17 H6          4.8380   -0.6640    3.5380 hc        1 MOL      0.090327
     18 H7          3.5280    0.6110    3.3760 hc        1 MOL      0.090327
     19 N2          2.1750   -3.1840    2.0560 n         1 MOL     -0.218990
     20 C7          2.2030   -4.6610    1.7350 c3        1 MOL     -0.037158
     21 C8          3.2010   -5.0450    0.5930 c         1 MOL      0.516821
     22 O5          3.3830   -6.2320    0.3950 o         1 MOL     -0.556006
     23 C9          0.8420   -5.1110    1.3270 c3        1 MOL     -0.139190
     24 C10         0.3160   -4.5820   -0.0310 c3        1 MOL      0.147182
     25 C11        -0.9220   -5.3230   -0.3400 c3        1 MOL      0.058605
     26 C12        -1.5060   -4.6460   -1.5540 c3        1 MOL      0.056577
     27 N3         -0.6190   -4.8630   -2.7170 n4        1 MOL     -0.315610
     28 H8          1.3600   -2.6990    1.7000 hn        1 MOL      0.224034
     29 H9          2.5180   -5.2220    2.6130 h1        1 MOL      0.108055
     30 H10         0.1250   -4.7980    2.0910 hc        1 MOL      0.046632
     31 H11         0.8290   -6.1960    1.2380 hc        1 MOL      0.046632
     32 H12         1.0290   -4.7140   -0.8440 hc        1 MOL     -0.042221
     33 H13         0.0850   -3.5480    0.1870 hc        1 MOL     -0.042221
     34 H14        -1.6660   -5.4040    0.4470 hc        1 MOL      0.014437
     35 H15        -0.6680   -6.3630   -0.5490 hc        1 MOL      0.014437
     36 H16        -1.4920   -3.5670   -1.4570 hx        1 MOL      0.017678
     37 H17        -2.5070   -5.0440   -1.7120 hx        1 MOL      0.017678
     38 H18        -1.1510   -4.5600   -3.5260 hn        1 MOL      0.294186
     39 H19         0.1890   -4.2530   -2.7200 hn        1 MOL      0.294186
     40 H20        -0.2480   -5.7720   -2.9530 hn        1 MOL      0.294186
     41 N4          3.7360   -4.0810   -0.1590 n         1 MOL     -0.368928
     42 C13         4.6100   -4.3450   -1.2700 c3        1 MOL     -0.041731
     43 C14         5.9110   -3.4220   -1.2260 c         1 MOL      0.454067
     44 O6          6.6720   -3.4410   -2.1680 o         1 MOL     -0.494338
     45 C15         3.7460   -4.3270   -2.5390 c3        1 MOL     -0.152372
     46 C16         2.7140   -3.2190   -2.6460 c         1 MOL      0.901148
     47 O7          2.9760   -2.1220   -2.0420 o         1 MOL     -0.786260
     48 O8          1.6830   -3.4220   -3.2480 o         1 MOL     -0.786260
     49 H21         3.6800   -3.1180    0.1410 hn        1 MOL      0.165664
     50 H22         4.9470   -5.3740   -1.1800 h1        1 MOL      0.127214
     51 H23         3.2960   -5.3120   -2.6190 hc        1 MOL      0.048337
     52 H24         4.3610   -4.4500   -3.4330 hc        1 MOL      0.048337
     53 N5          6.1780   -2.5800   -0.2250 n         1 MOL     -0.220048
     54 C17         7.4740   -1.8320    0.0120 c3        1 MOL     -0.381942
     55 C18         7.7590   -0.6650   -1.0080 c         1 MOL      0.570892
     56 O9          8.7960   -0.5490   -1.6700 o         1 MOL     -0.575066
     57 H25         5.4240   -2.3900    0.4190 hn        1 MOL      0.235224
     58 H26         8.3230   -2.4940   -0.1520 h1        1 MOL      0.173367
     59 H27         7.3930   -1.3930    1.0070 h1        1 MOL      0.173367
     60 N6          6.8460    0.2810   -1.1800 n         1 MOL     -0.159997
     61 C19         6.9200    1.4620   -2.0720 c3        1 MOL      0.045300
     62 C20         6.8540    2.7610   -1.3310 c         1 MOL      0.369063
     63 O10         7.1940    3.7900   -1.9270 o         1 MOL     -0.502750
     64 C21         5.9010    1.3950   -3.1650 c3        1 MOL     -0.225446
     65 C22         4.3850    1.3130   -2.7740 c         1 MOL      0.807919
     66 O11         3.5410    1.0270   -3.6470 o         1 MOL     -0.743670
     67 O12         4.0500    1.4920   -1.5730 o         1 MOL     -0.743670
     68 H28         5.9410    0.0850   -0.7870 hn        1 MOL      0.101053
     69 H29         7.9460    1.4360   -2.4520 h1        1 MOL      0.104305
     70 H30         6.1670    0.4930   -3.7240 hc        1 MOL      0.074651
     71 H31         6.0280    2.2070   -3.8770 hc        1 MOL      0.074651
     72 N7          6.4910    2.7730   -0.0190 n         1 MOL     -0.246037
     73 C23         6.2760    3.9540    0.7720 c3        1 MOL      0.179848
     74 C24         5.0090    4.7670    0.5770 c         1 MOL      0.383935
     75 O13         4.9240    5.9990    0.8600 o         1 MOL     -0.560260
     76 H32         6.2610    1.8660    0.3530 hn        1 MOL      0.136183
     77 H33         7.2020    4.5210    0.7710 h1        1 MOL      0.012545
     78 H34         6.2240    3.6970    1.8300 h1        1 MOL      0.012545
     79 N8          3.9750    4.1670   -0.1070 n         1 MOL     -0.141381
     80 C25         2.5780    4.6140   -0.1800 c3        1 MOL     -0.099512
     81 C26         1.5220    3.6210    0.2000 c         1 MOL      0.552575
     82 O14         1.6470    2.3420    0.0720 o         1 MOL     -0.673479
     83 C27         2.2840    5.1400   -1.6060 c3        1 MOL      0.321524
     84 C28         2.6800    6.5860   -1.8250 c3        1 MOL     -0.545174
     85 O15         3.0780    4.4710   -2.6390 oh        1 MOL     -0.540937
     86 H35         4.1650    3.1990   -0.3230 hn        1 MOL      0.206357
     87 H36         2.5280    5.4550    0.5060 h1        1 MOL      0.087126
     88 H37         1.2470    4.9510   -1.8790 h1        1 MOL      0.012297
     89 H38         2.6520    3.6120   -2.6470 ho        1 MOL      0.355474
     90 H39         3.7570    6.8040   -1.7840 hc        1 MOL      0.149515
     91 H40         2.5520    6.8630   -2.8770 hc        1 MOL      0.149515
     92 H41         2.0300    7.2600   -1.2730 hc        1 MOL      0.149515
     93 N9          0.3640    4.0690    0.6970 n         1 MOL     -0.516561
     94 C29        -0.7280    3.2740    1.1570 c3        1 MOL      0.192398
     95 C30        -2.0140    3.6560    0.3580 c         1 MOL      0.349002
     96 O16        -2.3850    4.8080    0.2620 o         1 MOL     -0.509384
     97 C31        -0.9020    3.3610    2.6770 c3        1 MOL      0.003541
     98 C32        -0.0150    2.2600    3.4270 c3        1 MOL      0.160708
     99 C33        -2.3690    3.4900    3.1570 c3        1 MOL     -0.249647
    100 C34        -0.1490    2.3700    4.9780 c3        1 MOL     -0.283532
    101 H42         0.3210    5.0640    0.8550 hn        1 MOL      0.305506
    102 H43        -0.5320    2.2230    0.9520 h1        1 MOL      0.058134
    103 H44        -0.3930    4.2860    2.9510 hc        1 MOL      0.015459
    104 H45         1.0020    2.4410    3.0960 hc        1 MOL     -0.009044
    105 H46        -0.2840    1.2630    3.0800 hc        1 MOL     -0.009044
    106 H47        -2.6910    4.4520    2.7600 hc        1 MOL      0.058052
    107 H48        -2.9830    2.6560    2.8290 hc        1 MOL      0.058052
    108 H49        -2.5250    3.6410    4.2190 hc        1 MOL      0.058052
    109 H50        -0.1620    3.4300    5.2640 hc        1 MOL      0.069967
    110 H51        -1.0590    1.8490    5.2690 hc        1 MOL      0.069967
    111 H52         0.6790    1.9020    5.5010 hc        1 MOL      0.069967
    112 N10        -2.5310    2.5990   -0.2620 n         1 MOL     -0.050897
    113 C35        -3.7610    2.5350   -1.1070 c3        1 MOL     -0.201927
    114 C36        -5.0560    2.3110   -0.3230 c         1 MOL      0.472291
    115 O17        -4.9050    1.9540    0.8320 o         1 MOL     -0.368496
    116 C37        -3.4840    1.4260   -2.1470 c3        1 MOL      0.394013
    117 C38        -2.4630    1.7280   -3.2350 c3        1 MOL     -0.451976
    118 O18        -3.1040    0.2180   -1.5890 oh        1 MOL     -0.549928
    119 H53        -2.0630    1.7070   -0.2690 hn        1 MOL      0.162265
    120 H54        -3.8350    3.4660   -1.6720 h1        1 MOL      0.090311
    121 H55        -4.4580    1.2300   -2.6050 h1        1 MOL     -0.037407
    122 H56        -2.1750    0.2510   -1.3730 ho        1 MOL      0.285434
    123 H57        -2.9190    2.5470   -3.7930 hc        1 MOL      0.119023
    124 H58        -1.4730    1.9860   -2.8700 hc        1 MOL      0.119023
    125 H59        -2.3810    0.8470   -3.8770 hc        1 MOL      0.119023
    126 N11        -6.2320    2.3830   -0.8970 n         1 MOL     -0.331056
    127 C39        -7.4520    2.0110   -0.0900 c3        1 MOL     -0.165835
    128 C40        -7.4930    0.5040    0.2410 c         1 MOL      0.319041
    129 O19        -8.0340    0.1280    1.2880 o         1 MOL     -0.479876
    130 C41        -8.7150    2.2210   -0.9360 c3        1 MOL      0.217041
    131 C42        -9.0560    3.7380   -1.1130 c3        1 MOL     -0.491836
    132 O20        -8.5530    1.6190   -2.1990 oh        1 MOL     -0.646456
    133 H60        -6.3620    2.8890   -1.7560 hn        1 MOL      0.276635
    134 H61        -7.5070    2.6540    0.7840 h1        1 MOL      0.185350
    135 H62        -9.5050    1.6700   -0.4290 h1        1 MOL      0.092764
    136 H63        -9.0140    2.1260   -2.8750 ho        1 MOL      0.420621
    137 H64        -8.3400    4.2350   -1.7630 hc        1 MOL      0.150111
    138 H65       -10.0910    3.8930   -1.4330 hc        1 MOL      0.150111
    139 H66        -9.0490    4.2220   -0.1350 hc        1 MOL      0.150111
    140 N12        -6.7890   -0.3660   -0.5170 n         1 MOL      0.033503
    141 C43        -6.6620   -1.8170   -0.1710 c3        1 MOL     -0.082469
    142 C44        -5.7490   -2.0310    1.0590 c         1 MOL      0.434301
    143 O21        -5.9530   -2.9700    1.8130 o         1 MOL     -0.504808
    144 C45        -6.1710   -2.6790   -1.3890 c3        1 MOL     -0.120312
    145 C46        -6.9040   -2.3070   -2.7640 c3        1 MOL     -0.138313
    146 C47        -8.3440   -2.6750   -2.7650 c3        1 MOL      0.057146
    147 C48        -8.9320   -2.3620   -4.1760 c3        1 MOL     -0.077242
    148 N13       -10.3980   -2.2430   -4.2260 n4        1 MOL     -0.214997
    149 H67        -6.4590    0.0170   -1.3910 hn        1 MOL      0.135358
    150 H68        -7.6750   -2.1330    0.0800 h1        1 MOL      0.075783
    151 H69        -6.3570   -3.7040   -1.0970 hc        1 MOL      0.079661
    152 H70        -5.0840   -2.6340   -1.5100 hc        1 MOL      0.079661
    153 H71        -6.4230   -2.8200   -3.5930 hc        1 MOL      0.054759
    154 H72        -6.7620   -1.2540   -3.0200 hc        1 MOL      0.054759
    155 H73        -8.8490   -2.0780   -2.0080 hc        1 MOL      0.042387
    156 H74        -8.5120   -3.7180   -2.5000 hc        1 MOL      0.042387
    157 H75        -8.7050   -3.1320   -4.9110 hx        1 MOL      0.103236
    158 H76        -8.4990   -1.3820   -4.3660 hx        1 MOL      0.103236
    159 H77       -10.7440   -1.5420   -3.5810 hn        1 MOL      0.278449
    160 H78       -10.6310   -1.8630   -5.1310 hn        1 MOL      0.278449
    161 H79       -10.9280   -3.0940   -4.1100 hn        1 MOL      0.278449
    162 N14        -4.7780   -1.1250    1.2730 n         1 MOL     -0.129552
    163 C49        -3.8560   -1.1530    2.4190 c3        1 MOL     -0.079583
    164 C50        -4.3430   -0.2530    3.5660 c         1 MOL      0.457167
    165 O22        -4.2240   -0.5540    4.7640 o         1 MOL     -0.544943
    166 C51        -2.4980   -0.6360    1.9660 c3        1 MOL      0.101695
    167 C52        -1.7420   -1.6060    1.0270 c3        1 MOL     -0.077065
    168 C53        -0.4880   -0.9690    0.3390 c         1 MOL      0.828938
    169 O23        -0.6730   -0.0520   -0.5020 o         1 MOL     -0.794934
    170 O24         0.6470   -1.3350    0.6200 o         1 MOL     -0.794934
    171 H80        -4.6870   -0.3600    0.6130 hn        1 MOL      0.018944
    172 H81        -3.6870   -2.1210    2.9030 h1        1 MOL      0.108895
    173 H82        -1.8580   -0.4020    2.8140 hc        1 MOL      0.037082
    174 H83        -2.6970    0.2990    1.4570 hc        1 MOL      0.037082
    175 H84        -2.3700   -2.1290    0.3090 hc        1 MOL      0.007229
    176 H85        -1.4010   -2.4770    1.5970 hc        1 MOL      0.007229
    177 N15        -5.0580    0.8560    3.3030 n         1 MOL     -0.105469
    178 C54        -5.5810    1.8030    4.3090 c3        1 MOL     -0.323743
    179 H86        -5.0480    2.7510    4.2260 h1        1 MOL      0.121875
    180 H87        -6.6450    1.9680    4.1350 h1        1 MOL      0.121875
    181 H88        -5.4360    1.3900    5.3080 h1        1 MOL      0.121875
    182 H89        -5.2550    1.0320    2.3260 hn        1 MOL      0.130154
    183 Ca1         1.9560    0.0000   -1.2130 Ca        1 MOL      1.786772
    184 O25         0.3040   -0.9110   -3.2380 oh        1 MOL     -0.821585
    185 H90         0.6160   -1.7300   -3.6320 ho        1 MOL      0.392518
    186 H91        -0.6470   -1.0170   -3.1800 ho        1 MOL      0.392518
    187 O26         1.2860    2.3150   -3.2630 oh        1 MOL     -0.821585
    188 H92         2.0320    1.8760   -3.6700 ho        1 MOL      0.392518
    189 H93         0.6340    2.3760   -3.9560 ho        1 MOL      0.392518
@<TRIPOS>BOND
     1    1    2 1   
     2    1    4 1   
     3    1    5 1   
     4    1    6 1   
     5    2    3 2   
     6    2    7 1   
     7    7    8 1   
     8    7   15 1   
     9    8    9 1   
    10    8   11 1   
    11    8   16 1   
    12    9   10 2   
    13    9   19 1   
    14   11   12 1   
    15   11   17 1   
    16   11   18 1   
    17   12   13 1   
    18   12   14 1   
    19   19   20 1   
    20   19   28 1   
    21   20   21 1   
    22   20   23 1   
    23   20   29 1   
    24   21   22 2   
    25   21   41 1   
    26   23   24 1   
    27   23   30 1   
    28   23   31 1   
    29   24   25 1   
    30   24   32 1   
    31   24   33 1   
    32   25   26 1   
    33   25   34 1   
    34   25   35 1   
    35   26   27 1   
    36   26   36 1   
    37   26   37 1   
    38   27   38 1   
    39   27   39 1   
    40   27   40 1   
    41   41   42 1   
    42   41   49 1   
    43   42   43 1   
    44   42   45 1   
    45   42   50 1   
    46   43   44 2   
    47   43   53 1   
    48   45   46 1   
    49   45   51 1   
    50   45   52 1   
    51   46   47 1   
    52   46   48 1   
    53   53   54 1   
    54   53   57 1   
    55   54   55 1   
    56   54   58 1   
    57   54   59 1   
    58   55   56 2   
    59   55   60 1   
    60   60   61 1   
    61   60   68 1   
    62   61   62 1   
    63   61   64 1   
    64   61   69 1   
    65   62   63 2   
    66   62   72 1   
    67   64   65 1   
    68   64   70 1   
    69   64   71 1   
    70   65   66 1   
    71   65   67 1   
    72   72   73 1   
    73   72   76 1   
    74   73   74 1   
    75   73   77 1   
    76   73   78 1   
    77   74   75 2   
    78   74   79 1   
    79   79   80 1   
    80   79   86 1   
    81   80   81 1   
    82   80   83 1   
    83   80   87 1   
    84   81   82 2   
    85   81   93 1   
    86   83   84 1   
    87   83   85 1   
    88   83   88 1   
    89   84   90 1   
    90   84   91 1   
    91   84   92 1   
    92   85   89 1   
    93   93   94 1   
    94   93  101 1   
    95   94   95 1   
    96   94   97 1   
    97   94  102 1   
    98   95   96 2   
    99   95  112 1   
   100   97   98 1   
   101   97   99 1   
   102   97  103 1   
   103   98  100 1   
   104   98  104 1   
   105   98  105 1   
   106   99  106 1   
   107   99  107 1   
   108   99  108 1   
   109  100  109 1   
   110  100  110 1   
   111  100  111 1   
   112  112  113 1   
   113  112  119 1   
   114  113  114 1   
   115  113  116 1   
   116  113  120 1   
   117  114  115 2   
   118  114  126 1   
   119  116  117 1   
   120  116  118 1   
   121  116  121 1   
   122  117  123 1   
   123  117  124 1   
   124  117  125 1   
   125  118  122 1   
   126  126  127 1   
   127  126  133 1   
   128  127  128 1   
   129  127  130 1   
   130  127  134 1   
   131  128  129 2   
   132  128  140 1   
   133  130  131 1   
   134  130  132 1   
   135  130  135 1   
   136  131  137 1   
   137  131  138 1   
   138  131  139 1   
   139  132  136 1   
   140  140  141 1   
   141  140  149 1   
   142  141  142 1   
   143  141  144 1   
   144  141  150 1   
   145  142  143 2   
   146  142  162 1   
   147  144  145 1   
   148  144  151 1   
   149  144  152 1   
   150  145  146 1   
   151  145  153 1   
   152  145  154 1   
   153  146  147 1   
   154  146  155 1   
   155  146  156 1   
   156  147  148 1   
   157  147  157 1   
   158  147  158 1   
   159  148  159 1   
   160  148  160 1   
   161  148  161 1   
   162  162  163 1   
   163  162  171 1   
   164  163  164 1   
   165  163  166 1   
   166  163  172 1   
   167  164  165 2   
   168  164  177 1   
   169  166  167 1   
   170  166  173 1   
   171  166  174 1   
   172  167  168 1   
   173  167  175 1   
   174  167  176 1   
   175  168  169 1   
   176  168  170 1   
   177  177  178 1   
   178  177  182 1   
   179  178  179 1   
   180  178  180 1   
   181  178  181 1   
   182  184  185 1   
   183  184  186 1   
   184  187  188 1   
   185  187  189 1   
@<TRIPOS>SUBSTRUCTURE
     1 MOL         1 TEMP              0 ****  ****    0 ROOT
