@<TRIPOS>MOLECULE
MOL
  175   173     1     0     0
SMALL
resp


@<TRIPOS>ATOM
      1 C1          0.2740    4.5060    5.3790 c3        1 MOL     -0.372606
      2 C2         -0.4600    4.5130    4.0310 c         1 MOL      0.712830
      3 O1          0.1680    4.8980    3.0510 o         1 MOL     -0.563211
      4 H1          0.7740    3.5470    5.5140 hc        1 MOL      0.089901
      5 H2          1.0140    5.3060    5.3950 hc        1 MOL      0.089901
      6 H3         -0.4440    4.6570    6.1850 hc        1 MOL      0.089901
      7 N1         -1.7480    4.0880    3.9280 n         1 MOL     -0.698941
      8 C3         -2.4310    3.6900    2.6000 c3        1 MOL      0.312352
      9 C4         -2.8670    4.8620    1.7660 c         1 MOL      0.568091
     10 O2         -3.3340    5.8430    2.3620 o         1 MOL     -0.575164
     11 C5         -3.6480    2.8260    2.8620 c3        1 MOL     -0.307213
     12 C6         -4.1690    2.1480    1.6070 c         1 MOL      0.775218
     13 O3         -3.3980    1.9730    0.6090 o         1 MOL     -0.659834
     14 O4         -5.2990    1.7310    1.6090 o         1 MOL     -0.659834
     15 H4         -2.1340    3.8340    4.8300 hn        1 MOL      0.329125
     16 H5         -1.6490    3.1890    2.0390 h1        1 MOL      0.010573
     17 H6         -4.3820    3.4450    3.3730 hc        1 MOL      0.053530
     18 H7         -3.3650    2.0820    3.6090 hc        1 MOL      0.053530
     19 N2         -2.7890    4.7860    0.4070 n         1 MOL     -0.478764
     20 C7         -3.3150    5.7040   -0.5590 c3        1 MOL      0.341922
     21 C8         -4.1790    5.0820   -1.6860 c         1 MOL      0.391243
     22 O5         -4.6350    5.8000   -2.5520 o         1 MOL     -0.543994
     23 C9         -2.1210    6.4230   -1.1290 c3        1 MOL     -0.283520
     24 H8         -2.3160    3.9650    0.0570 hn        1 MOL      0.252054
     25 H9         -3.9600    6.3500    0.0200 h1        1 MOL     -0.006015
     26 H10        -1.6240    5.7690   -1.8500 hc        1 MOL      0.070268
     27 H11        -2.4300    7.3280   -1.6480 hc        1 MOL      0.070268
     28 H12        -1.3900    6.6550   -0.3540 hc        1 MOL      0.070268
     29 N3         -4.4910    3.7250   -1.7130 n         1 MOL     -0.239765
     30 C10        -5.1980    3.0290   -2.7770 c3        1 MOL      0.007976
     31 C11        -6.2740    2.0620   -2.2970 c         1 MOL      0.397680
     32 O6         -7.1710    1.6800   -3.0690 o         1 MOL     -0.548001
     33 C12        -4.1570    2.3390   -3.6810 c3        1 MOL     -0.081408
     34 C13        -3.3300    1.3640   -2.8620 c         1 MOL      0.593749
     35 O7         -2.1400    1.1370   -3.2540 o         1 MOL     -0.637093
     36 O8         -3.8460    0.6850   -1.8930 o         1 MOL     -0.637093
     37 H13        -4.3280    3.2850   -0.8170 hn        1 MOL      0.130488
     38 H14        -5.7540    3.7250   -3.4090 h1        1 MOL      0.089142
     39 H15        -3.5160    2.9870   -4.2770 hc        1 MOL      0.032578
     40 H16        -4.6920    1.7380   -4.4280 hc        1 MOL      0.032578
     41 N4         -6.3610    1.7120   -1.0240 n         1 MOL     -0.238546
     42 C14        -7.3110    0.7580   -0.3870 c3        1 MOL     -0.159900
     43 C15        -7.3880   -0.6250   -1.0100 c         1 MOL      0.520234
     44 O9         -8.4390   -1.2590   -1.0410 o         1 MOL     -0.598292
     45 H17        -5.6090    1.9600   -0.3910 hn        1 MOL      0.171199
     46 H18        -8.3570    1.0730   -0.4870 h1        1 MOL      0.101728
     47 H19        -7.1430    0.6600    0.6900 h1        1 MOL      0.101728
     48 N5         -6.2680   -1.2040   -1.4510 n         1 MOL     -0.207030
     49 C16        -6.1090   -2.5640   -1.9670 c3        1 MOL     -0.030458
     50 C17        -6.0040   -3.7120   -0.8810 c         1 MOL      0.443417
     51 O10        -6.2110   -4.9160   -1.1580 o         1 MOL     -0.553411
     52 C18        -4.9820   -2.6370   -2.9550 c3        1 MOL     -0.155517
     53 C19        -3.5790   -2.4510   -2.3240 c         1 MOL      0.499886
     54 N6         -2.5660   -2.1650   -3.1620 n         1 MOL     -0.721864
     55 O11        -3.3610   -2.5670   -1.1530 o         1 MOL     -0.312821
     56 H20        -5.4400   -0.6250   -1.4040 hn        1 MOL      0.177752
     57 H21        -7.0120   -2.8900   -2.4710 h1        1 MOL      0.109772
     58 H22        -4.9840   -1.9030   -3.7600 hc        1 MOL      0.054445
     59 H23        -5.0380   -3.6200   -3.4100 hc        1 MOL      0.054445
     60 H24        -2.7820   -2.1090   -4.1560 hn        1 MOL      0.353588
     61 H25        -1.6700   -1.9730   -2.7500 hn        1 MOL      0.353588
     62 N7         -5.7980   -3.3200    0.3760 n         1 MOL     -0.223618
     63 C20        -5.7890   -4.1770    1.5990 c3        1 MOL     -0.100829
     64 C21        -4.4720   -4.6300    2.1450 c         1 MOL      0.456052
     65 O12        -4.3840   -5.3520    3.1400 o         1 MOL     -0.588268
     66 H26        -5.6380   -2.3380    0.5290 hn        1 MOL      0.148205
     67 H27        -6.3930   -5.0830    1.5210 h1        1 MOL      0.100537
     68 H28        -6.4680   -3.6610    2.2760 h1        1 MOL      0.100537
     69 N8         -3.3770   -4.2810    1.4970 n         1 MOL     -0.254937
     70 C22        -1.9460   -4.6250    1.7140 c3        1 MOL      0.047893
     71 C23        -0.8630   -3.5080    1.7090 c         1 MOL      0.510847
     72 O13        -1.2470   -2.4510    1.1480 o         1 MOL     -0.735188
     73 C24        -1.5290   -5.5670    0.5680 c3        1 MOL      0.532653
     74 C25        -2.1530   -6.9680    0.7810 c3        1 MOL     -0.430215
     75 O14        -1.9610   -4.9850   -0.6650 oh        1 MOL     -0.583914
     76 H29        -3.6620   -3.9250    0.5910 hn        1 MOL      0.168801
     77 H30        -1.7890   -5.1530    2.6470 h1        1 MOL      0.033013
     78 H31        -0.4710   -5.8230    0.6050 h1        1 MOL     -0.060410
     79 H32        -1.8200   -4.0460   -0.5100 ho        1 MOL      0.268402
     80 H33        -2.0840   -7.6300   -0.0860 hc        1 MOL      0.103206
     81 H34        -1.7070   -7.4190    1.6680 hc        1 MOL      0.103206
     82 H35        -3.2280   -6.9980    0.9530 hc        1 MOL      0.103206
     83 N9          0.3850   -3.7690    2.1100 n         1 MOL     -0.458500
     84 C26         1.5650   -2.9490    1.9590 c3        1 MOL      0.068164
     85 C27         2.1480   -3.1300    0.5800 c         1 MOL      0.573567
     86 O15         2.5740   -4.2370    0.1760 o         1 MOL     -0.610445
     87 C28         2.5140   -3.2310    3.1260 c3        1 MOL     -0.171721
     88 C29         2.0190   -2.6240    4.4560 c3        1 MOL     -0.086580
     89 C30         3.9710   -2.8690    2.8330 c3        1 MOL      0.043864
     90 C31         1.8880   -1.1510    4.5780 c3        1 MOL     -0.171821
     91 H36         0.5010   -4.7110    2.4520 hn        1 MOL      0.254331
     92 H37         1.2570   -1.9050    1.9710 h1        1 MOL      0.423793
     93 H38         2.5760   -4.2960    3.3240 hc        1 MOL      0.046213
     94 H39         2.6960   -2.9440    5.2520 hc        1 MOL      0.038640
     95 H40         1.0290   -3.0290    4.6930 hc        1 MOL      0.038640
     96 H41         4.0650   -1.8080    2.6010 hc        1 MOL     -0.009564
     97 H42         4.5520   -3.2520    3.6690 hc        1 MOL     -0.009564
     98 H43         4.3670   -3.3970    1.9600 hc        1 MOL     -0.009564
     99 H44         2.8260   -0.6300    4.3630 hc        1 MOL      0.045971
    100 H45         1.1760   -0.8100    3.8250 hc        1 MOL      0.045971
    101 H46         1.5580   -1.0650    5.6210 hc        1 MOL      0.045971
    102 N10         1.9990   -2.0880   -0.2170 n         1 MOL     -0.193484
    103 C32         2.8120   -1.7630   -1.4210 c3        1 MOL     -0.034193
    104 C33         4.2490   -1.3910   -1.0370 c         1 MOL      0.512487
    105 O16         4.5210   -1.1070    0.0980 o         1 MOL     -0.364166
    106 C34         2.0770   -0.8360   -2.3770 c3        1 MOL     -0.098875
    107 C35         0.6220   -1.2010   -2.6570 c         1 MOL      0.621918
    108 O17        -0.3550   -1.2820   -1.8340 o         1 MOL     -0.625882
    109 O18         0.3110   -1.2780   -3.8440 o         1 MOL     -0.625882
    110 H47         1.5750   -1.2850    0.2270 hn        1 MOL     -0.084275
    111 H48         2.7820   -2.6380   -2.0700 h1        1 MOL      0.078121
    112 H49         2.7280   -0.7470   -3.2450 hc        1 MOL      0.044600
    113 H50         2.0410    0.1150   -1.8400 hc        1 MOL      0.044600
    114 N11         5.1510   -1.3960   -1.9970 n         1 MOL     -0.714530
    115 C36         6.5240   -1.0000   -1.7620 c3        1 MOL      0.491349
    116 C37         6.6460    0.4630   -1.2740 c         1 MOL      0.211715
    117 O19         7.4710    0.7860   -0.3630 o         1 MOL     -0.445385
    118 C38         7.4430   -1.3240   -2.9520 c3        1 MOL     -0.292886
    119 C39         8.9150   -1.3690   -2.4700 ca        1 MOL      0.050719
    120 C40         9.3950   -2.5430   -1.8490 ca        1 MOL     -0.136041
    121 C41         9.6890   -0.2510   -2.4010 ca        1 MOL     -0.136041
    122 C42        10.6330   -2.5500   -1.2200 ca        1 MOL     -0.138255
    123 C43        10.9940   -0.2100   -1.8570 ca        1 MOL     -0.138255
    124 C44        11.4420   -1.3710   -1.1520 ca        1 MOL     -0.082773
    125 H51         4.8990   -1.7990   -2.8860 hn        1 MOL      0.351565
    126 H52         6.9520   -1.4640   -0.8700 h1        1 MOL      0.015404
    127 H53         7.3580   -0.5900   -3.7580 hc        1 MOL      0.099872
    128 H54         7.1220   -2.2820   -3.3690 hc        1 MOL      0.099872
    129 H55         8.7720   -3.4180   -1.9280 ha        1 MOL      0.110121
    130 H56         9.1880    0.6640   -2.6740 ha        1 MOL      0.110121
    131 H57        11.0400   -3.4450   -0.7800 ha        1 MOL      0.119591
    132 H58        11.5840    0.6920   -1.9000 ha        1 MOL      0.119591
    133 H59        12.4490   -1.3600   -0.7690 ha        1 MOL      0.097866
    134 N12         5.9740    1.5070   -1.8720 n         1 MOL     -0.075128
    135 C45         5.9330    2.9290   -1.3560 c3        1 MOL      0.062954
    136 C46         5.3230    3.0940    0.0290 c         1 MOL      0.245048
    137 O20         5.7160    3.9870    0.7960 o         1 MOL     -0.491239
    138 C47         5.0970    3.8040   -2.3410 c3        1 MOL     -0.055250
    139 C48         5.0100    2.8750   -3.5390 c3        1 MOL     -0.010303
    140 C49         5.3880    1.4740   -3.1810 c3        1 MOL      0.048554
    141 H60         6.9420    3.3390   -1.3000 h1        1 MOL      0.055507
    142 H61         4.1310    4.0140   -1.8900 hc        1 MOL      0.045365
    143 H62         5.5500    4.7610   -2.6160 hc        1 MOL      0.045365
    144 H63         4.0030    2.7480   -3.9400 hc        1 MOL      0.021389
    145 H64         5.5450    3.2320   -4.4150 hc        1 MOL      0.021389
    146 H65         4.5070    0.8430   -3.0520 h1        1 MOL     -0.001293
    147 H66         6.0700    1.1230   -3.9480 h1        1 MOL     -0.001293
    148 N13         4.4660    2.1610    0.5190 n         1 MOL     -0.063008
    149 C50         3.8570    2.0440    1.7820 c3        1 MOL     -0.114903
    150 C51         4.8300    1.4330    2.8250 c         1 MOL      0.501915
    151 O21         4.8990    1.7830    3.9930 o         1 MOL     -0.573714
    152 C52         2.5350    1.3260    1.6440 c3        1 MOL      0.342180
    153 C53         1.5400    2.1100    0.7230 c3        1 MOL     -0.149671
    154 C54         0.2740    1.3720    0.5710 c         1 MOL      0.719836
    155 O22        -0.6800    1.8800   -0.1530 o         1 MOL     -0.734597
    156 O23         0.1290    0.1790    0.9720 o         1 MOL     -0.734597
    157 H67         4.2330    1.4870   -0.1910 hn        1 MOL      0.190001
    158 H68         3.5470    2.9670    2.2710 h1        1 MOL      0.082010
    159 H69         2.1220    1.0660    2.6190 hc        1 MOL     -0.118952
    160 H70         2.7120    0.3610    1.1880 hc        1 MOL     -0.118952
    161 H71         1.9880    2.2030   -0.2660 hc        1 MOL      0.035330
    162 H72         1.3660    3.0940    1.1530 hc        1 MOL      0.035330
    163 N14         5.6630    0.4680    2.4120 n         1 MOL     -0.090598
    164 C55         6.9310    0.1830    3.1880 c3        1 MOL     -0.304815
    165 H73         7.0270   -0.8910    3.3450 h1        1 MOL      0.109220
    166 H74         7.7910    0.5470    2.6260 h1        1 MOL      0.109220
    167 H75         6.8870    0.6880    4.1530 h1        1 MOL      0.109220
    168 H76         5.4280   -0.0330    1.5560 hn        1 MOL      0.104882
    169 Ca1        -2.2150   -0.2480   -0.2900 Ca        1 MOL      1.689078
    170 O24        -4.5870   -0.8390    1.1370 oh        1 MOL     -0.752667
    171 H77        -4.9650    0.0260    1.2990 ho        1 MOL      0.367017
    172 H78        -4.5670   -1.2520    2.0050 ho        1 MOL      0.367017
    173 O25        -1.9660    0.0490    2.6500 oh        1 MOL     -0.752667
    174 H79        -1.9710    0.2240    3.5950 ho        1 MOL      0.367017
    175 H80        -1.1030   -0.3200    2.4760 ho        1 MOL      0.367017
@<TRIPOS>BOND
     1    1    2 1   
     2    1    4 1   
     3    1    5 1   
     4    1    6 1   
     5    2    3 2   
     6    2    7 1   
     7    7    8 1   
     8    7   15 1   
     9    8    9 1   
    10    8   11 1   
    11    8   16 1   
    12    9   10 2   
    13    9   19 1   
    14   11   12 1   
    15   11   17 1   
    16   11   18 1   
    17   12   13 1   
    18   12   14 1   
    19   19   20 1   
    20   19   24 1   
    21   20   21 1   
    22   20   23 1   
    23   20   25 1   
    24   21   22 2   
    25   21   29 1   
    26   23   26 1   
    27   23   27 1   
    28   23   28 1   
    29   29   30 1   
    30   29   37 1   
    31   30   31 1   
    32   30   33 1   
    33   30   38 1   
    34   31   32 2   
    35   31   41 1   
    36   33   34 1   
    37   33   39 1   
    38   33   40 1   
    39   34   35 1   
    40   34   36 1   
    41   41   42 1   
    42   41   45 1   
    43   42   43 1   
    44   42   46 1   
    45   42   47 1   
    46   43   44 2   
    47   43   48 1   
    48   48   49 1   
    49   48   56 1   
    50   49   50 1   
    51   49   52 1   
    52   49   57 1   
    53   50   51 2   
    54   50   62 1   
    55   52   53 1   
    56   52   58 1   
    57   52   59 1   
    58   53   54 1   
    59   53   55 2   
    60   54   60 1   
    61   54   61 1   
    62   62   63 1   
    63   62   66 1   
    64   63   64 1   
    65   63   67 1   
    66   63   68 1   
    67   64   65 2   
    68   64   69 1   
    69   69   70 1   
    70   69   76 1   
    71   70   71 1   
    72   70   73 1   
    73   70   77 1   
    74   71   72 2   
    75   71   83 1   
    76   73   74 1   
    77   73   75 1   
    78   73   78 1   
    79   74   80 1   
    80   74   81 1   
    81   74   82 1   
    82   75   79 1   
    83   83   84 1   
    84   83   91 1   
    85   84   85 1   
    86   84   87 1   
    87   84   92 1   
    88   85   86 2   
    89   85  102 1   
    90   87   88 1   
    91   87   89 1   
    92   87   93 1   
    93   88   90 1   
    94   88   94 1   
    95   88   95 1   
    96   89   96 1   
    97   89   97 1   
    98   89   98 1   
    99   90   99 1   
   100   90  100 1   
   101   90  101 1   
   102  102  103 1   
   103  102  110 1   
   104  103  104 1   
   105  103  106 1   
   106  103  111 1   
   107  104  105 2   
   108  104  114 1   
   109  106  107 1   
   110  106  112 1   
   111  106  113 1   
   112  107  108 1   
   113  107  109 1   
   114  114  115 1   
   115  114  125 1   
   116  115  116 1   
   117  115  118 1   
   118  115  126 1   
   119  116  117 2   
   120  116  134 1   
   121  118  119 1   
   122  118  127 1   
   123  118  128 1   
   124  119  120 ar  
   125  119  121 ar  
   126  120  122 ar  
   127  120  129 1   
   128  121  123 ar  
   129  121  130 1   
   130  122  124 ar  
   131  122  131 1   
   132  123  124 ar  
   133  123  132 1   
   134  124  133 1   
   135  134  135 1   
   136  134  140 1   
   137  135  136 1   
   138  135  138 1   
   139  135  141 1   
   140  136  137 2   
   141  136  148 1   
   142  138  139 1   
   143  138  142 1   
   144  138  143 1   
   145  139  140 1   
   146  139  144 1   
   147  139  145 1   
   148  140  146 1   
   149  140  147 1   
   150  148  149 1   
   151  148  157 1   
   152  149  150 1   
   153  149  152 1   
   154  149  158 1   
   155  150  151 2   
   156  150  163 1   
   157  152  153 1   
   158  152  159 1   
   159  152  160 1   
   160  153  154 1   
   161  153  161 1   
   162  153  162 1   
   163  154  155 1   
   164  154  156 1   
   165  163  164 1   
   166  163  168 1   
   167  164  165 1   
   168  164  166 1   
   169  164  167 1   
   170  170  171 1   
   171  170  172 1   
   172  173  174 1   
   173  173  175 1   
@<TRIPOS>SUBSTRUCTURE
     1 MOL         1 TEMP              0 ****  ****    0 ROOT
