@<TRIPOS>MOLECULE
MOL
  183   181     1     0     0
SMALL
resp


@<TRIPOS>ATOM
      1 C1         -0.3840    2.3430    6.3280 c3        1 MOL     -0.241468
      2 C2         -0.7610    2.3350    4.7980 c         1 MOL      0.721582
      3 O1          0.0790    2.7030    3.9760 o         1 MOL     -0.563842
      4 H1         -0.6390    3.3100    6.7600 hc        1 MOL      0.048358
      5 H2         -0.9390    1.5590    6.8430 hc        1 MOL      0.048358
      6 H3          0.6860    2.1660    6.4410 hc        1 MOL      0.048358
      7 N1         -1.9380    1.7840    4.4470 n         1 MOL     -0.659826
      8 C3         -2.4710    1.6820    3.0460 c3        1 MOL      0.043506
      9 C4         -2.9160    3.1210    2.5980 c         1 MOL      0.672961
     10 O2         -3.5950    3.8120    3.3770 o         1 MOL     -0.586987
     11 C5         -3.6470    0.6260    2.9730 c3        1 MOL     -0.286102
     12 C6         -4.4420    0.7150    1.6950 c         1 MOL      0.886426
     13 O3         -5.6100    0.3270    1.7210 o         1 MOL     -0.699349
     14 O4         -3.8400    1.0270    0.6310 o         1 MOL     -0.699349
     15 H4         -2.4050    1.1740    5.1070 hn        1 MOL      0.342260
     16 H5         -1.6540    1.3390    2.4090 h1        1 MOL      0.055829
     17 H6         -4.3570    0.9730    3.7150 hc        1 MOL      0.050074
     18 H7         -3.2180   -0.3520    3.1890 hc        1 MOL      0.050074
     19 N2         -2.5300    3.4800    1.3990 n         1 MOL     -0.495276
     20 C7         -2.8100    4.8030    0.8450 c3        1 MOL      0.055128
     21 C8         -4.0750    4.7910   -0.0650 c         1 MOL      0.474443
     22 O5         -4.7160    5.8440   -0.2670 o         1 MOL     -0.581890
     23 C9         -1.5130    5.3290    0.0790 c3        1 MOL      0.118790
     24 C10        -0.3370    5.3370    1.1350 c3        1 MOL     -0.029973
     25 C11        -1.6380    6.7140   -0.5010 c3        1 MOL     -0.102842
     26 C12         0.9970    5.9550    0.8300 c3        1 MOL     -0.241979
     27 H8         -1.9760    2.8710    0.8210 hn        1 MOL      0.287009
     28 H9         -3.0370    5.4770    1.6750 h1        1 MOL      0.036723
     29 H10        -1.2730    4.7910   -0.8380 hc        1 MOL      0.035141
     30 H11        -0.1230    4.2710    1.2160 hc        1 MOL      0.042910
     31 H12        -0.6860    5.6600    2.1180 hc        1 MOL      0.042910
     32 H13        -2.0750    7.4300    0.1980 hc        1 MOL      0.009788
     33 H14        -0.7050    7.1330   -0.8660 hc        1 MOL      0.009788
     34 H15        -2.3610    6.8250   -1.3140 hc        1 MOL      0.009788
     35 H16         0.8210    7.0220    1.0110 hc        1 MOL      0.054400
     36 H17         1.5900    5.5070    1.6260 hc        1 MOL      0.054400
     37 H18         1.4000    5.7470   -0.1570 hc        1 MOL      0.054400
     38 N3         -4.3890    3.6690   -0.7810 n         1 MOL     -0.289920
     39 C13        -5.4080    3.6160   -1.8820 c3        1 MOL     -0.020937
     40 C14        -6.5500    2.6520   -1.5560 c         1 MOL      0.443275
     41 O6         -7.4190    2.4170   -2.4090 o         1 MOL     -0.534665
     42 C15        -4.7480    3.3420   -3.2340 c3        1 MOL     -0.005679
     43 C16        -3.8710    2.1060   -3.2540 c         1 MOL      0.758854
     44 O7         -3.4670    1.8100   -4.4140 o         1 MOL     -0.726017
     45 O8         -3.6820    1.4000   -2.2640 o         1 MOL     -0.726017
     46 H19        -3.8830    2.8110   -0.5780 hn        1 MOL      0.168693
     47 H20        -5.9710    4.5370   -1.9740 h1        1 MOL      0.079633
     48 H21        -4.0770    4.1660   -3.4460 hc        1 MOL     -0.001510
     49 H22        -5.4440    3.3080   -4.0780 hc        1 MOL     -0.001510
     50 N4         -6.6970    2.0430   -0.3440 n         1 MOL     -0.157665
     51 C17        -7.9280    1.5360    0.1560 c3        1 MOL     -0.223411
     52 C18        -8.2680    0.0940   -0.2350 c         1 MOL      0.629425
     53 O9         -9.4600   -0.1860   -0.4780 o         1 MOL     -0.657864
     54 H23        -5.8780    2.0850    0.2340 hn        1 MOL      0.159228
     55 H24        -8.7320    2.2070   -0.1600 h1        1 MOL      0.082977
     56 H25        -7.8720    1.4280    1.2430 h1        1 MOL      0.082977
     57 N5         -7.3320   -0.8050   -0.2950 n         1 MOL     -0.319672
     58 C19        -7.4470   -2.1490   -0.9030 c3        1 MOL      0.130878
     59 C20        -7.1630   -3.3360    0.1190 c         1 MOL      0.291322
     60 O10        -7.4670   -4.4470   -0.2320 o         1 MOL     -0.506532
     61 C21        -6.5200   -2.2910   -2.1430 c3        1 MOL     -0.228536
     62 C22        -5.0320   -1.9600   -1.8490 c         1 MOL      0.697203
     63 O11        -4.3330   -1.6770   -2.8640 o         1 MOL     -0.706055
     64 O12        -4.5720   -1.8990   -0.7130 o         1 MOL     -0.706055
     65 H26        -6.4580   -0.4100    0.0270 hn        1 MOL      0.171454
     66 H27        -8.4550   -2.3260   -1.2920 h1        1 MOL      0.072300
     67 H28        -6.9780   -1.6510   -2.8950 hc        1 MOL      0.068060
     68 H29        -6.5720   -3.3640   -2.3170 hc        1 MOL      0.068060
     69 N6         -6.5970   -3.0740    1.2690 n         1 MOL     -0.179677
     70 C23        -6.3220   -4.1440    2.2470 c3        1 MOL      0.043394
     71 C24        -4.8630   -4.6760    2.2450 c         1 MOL      0.472420
     72 O13        -4.5550   -5.6770    2.9050 o         1 MOL     -0.606667
     73 H30        -6.5060   -2.1040    1.5420 hn        1 MOL      0.199648
     74 H31        -7.0540   -4.9480    2.2310 h1        1 MOL      0.030164
     75 H32        -6.4280   -3.6740    3.2210 h1        1 MOL      0.030164
     76 N7         -3.9610   -4.0510    1.5200 n         1 MOL     -0.199295
     77 C25        -2.5990   -4.5410    1.3290 c3        1 MOL      0.024146
     78 C26        -1.6240   -3.3830    1.3170 c         1 MOL      0.494557
     79 O14        -1.9740   -2.2220    0.9650 o         1 MOL     -0.628412
     80 C27        -2.5340   -5.5270    0.1050 c3        1 MOL      0.017012
     81 C28        -2.8330   -4.9860   -1.3160 c3        1 MOL     -0.364710
     82 C29        -1.5800   -4.1830   -1.7880 c         1 MOL      0.474192
     83 N8         -0.5200   -4.9250   -1.9930 n         1 MOL     -0.573474
     84 O15        -1.5540   -2.9110   -1.8160 o         1 MOL     -0.493099
     85 H33        -4.3430   -3.2190    1.0840 hn        1 MOL      0.207262
     86 H34        -2.3220   -5.1030    2.2210 h1        1 MOL      0.057307
     87 H35        -3.2850   -6.2350    0.4310 hc        1 MOL      0.012316
     88 H36        -1.5720   -6.0400    0.1310 hc        1 MOL      0.012316
     89 H37        -3.6390   -4.2570   -1.2230 hc        1 MOL      0.137355
     90 H38        -3.1250   -5.7760   -2.0130 hc        1 MOL      0.137355
     91 H39        -0.7150   -5.9140   -1.9540 hn        1 MOL      0.307512
     92 H40         0.3510   -4.5580   -2.3670 hn        1 MOL      0.307512
     93 N9         -0.3710   -3.5180    1.8010 n         1 MOL     -0.409710
     94 C30         0.6350   -2.4500    1.8250 c3        1 MOL     -0.028237
     95 C31         1.8880   -2.9150    1.1000 c         1 MOL      0.429150
     96 O16         2.5850   -3.7970    1.5680 o         1 MOL     -0.547083
     97 C32         1.0280   -2.0920    3.2890 c3        1 MOL      0.125713
     98 C33         2.0210   -0.9460    3.4310 c3        1 MOL     -0.273081
     99 C34        -0.2090   -1.5150    3.9620 c3        1 MOL     -0.273081
    100 H41        -0.0750   -4.3880    2.2140 hn        1 MOL      0.281763
    101 H42         0.1460   -1.5340    1.4950 h1        1 MOL      0.151345
    102 H43         1.4270   -2.9600    3.8160 hc        1 MOL      0.008151
    103 H44         2.8690   -1.1030    2.7700 hc        1 MOL      0.067233
    104 H45         1.6220    0.0480    3.2000 hc        1 MOL      0.067233
    105 H46         2.3570   -1.0070    4.4640 hc        1 MOL      0.067233
    106 H47        -0.0990   -1.3600    5.0360 hc        1 MOL      0.067233
    107 H48        -0.5360   -0.6260    3.4230 hc        1 MOL      0.067233
    108 H49        -1.0350   -2.2280    3.9770 hc        1 MOL      0.067233
    109 N10         2.1380   -2.4000   -0.1130 n         1 MOL     -0.279472
    110 C35         3.3560   -2.6390   -0.9120 c3        1 MOL      0.026144
    111 C36         4.5610   -1.9480   -0.2320 c         1 MOL      0.482330
    112 O17         4.3640   -1.0010    0.5460 o         1 MOL     -0.351941
    113 C37         3.1130   -2.1140   -2.3100 c3        1 MOL     -0.383787
    114 C38         1.8500   -2.6230   -3.0000 c         1 MOL      0.742964
    115 N11         0.8820   -1.8120   -3.1460 n         1 MOL     -0.748243
    116 O18         1.6830   -3.8260   -3.2590 o         1 MOL     -0.635306
    117 H50         1.4510   -1.8390   -0.6010 hn        1 MOL      0.333155
    118 H51         3.6280   -3.6870   -1.0190 h1        1 MOL      0.062235
    119 H52         4.0400   -2.3600   -2.8200 hc        1 MOL      0.102798
    120 H53         3.0800   -1.0320   -2.2020 hc        1 MOL      0.102798
    121 H54         0.7860   -0.8690   -2.7810 hn        1 MOL      0.383852
    122 H55         0.0970   -2.1590   -3.6810 hn        1 MOL      0.383852
    123 N12         5.8020   -2.3040   -0.5260 n         1 MOL     -0.625974
    124 C39         6.9720   -1.6730    0.0670 c3        1 MOL      0.374858
    125 C40         7.0550   -0.1680   -0.2270 c         1 MOL      0.604933
    126 O19         7.3870    0.5690    0.6580 o         1 MOL     -0.523281
    127 C41         8.2080   -2.3730   -0.5700 c3        1 MOL     -0.242418
    128 C42         9.6560   -1.9040   -0.2060 ca        1 MOL      0.053643
    129 C43        10.1070   -2.1430    1.1360 ca        1 MOL     -0.197262
    130 C44        10.4520   -1.1020   -1.0430 ca        1 MOL     -0.197262
    131 C45        11.2980   -1.5580    1.6070 ca        1 MOL     -0.201416
    132 C46        11.6470   -0.5380   -0.5120 ca        1 MOL     -0.201416
    133 C47        12.0950   -0.6880    0.8360 ca        1 MOL      0.288656
    134 O20        13.1490   -0.0720    1.4360 oh        1 MOL     -0.473545
    135 H56         5.9170   -3.2060   -0.9710 hn        1 MOL      0.314298
    136 H57         7.0910   -1.7690    1.1480 h1        1 MOL      0.011786
    137 H58         8.0200   -2.1700   -1.6270 hc        1 MOL      0.058323
    138 H59         8.0790   -3.4100   -0.2540 hc        1 MOL      0.058323
    139 H60         9.5110   -2.7000    1.8490 ha        1 MOL      0.155577
    140 H61        10.1040   -0.9990   -2.0570 ha        1 MOL      0.155577
    141 H62        11.5820   -1.7410    2.6320 ha        1 MOL      0.115947
    142 H63        12.3690    0.0730   -1.0560 ha        1 MOL      0.115947
    143 H64        13.5440    0.5850    0.8530 ho        1 MOL      0.366293
    144 N13         6.5970    0.3180   -1.4320 n         1 MOL     -0.506218
    145 C48         6.3820    1.7370   -1.8060 c3        1 MOL     -0.026430
    146 C49         5.4560    2.5380   -0.8780 c         1 MOL      0.423682
    147 O21         5.5990    3.7870   -0.7970 o         1 MOL     -0.541259
    148 C50         5.9590    1.8590   -3.2000 c3        1 MOL      0.035249
    149 C51         4.6150    1.2690   -3.7220 c3        1 MOL     -0.007920
    150 C52         4.1610    1.7670   -5.1390 c         1 MOL      0.699484
    151 O22         4.8460    2.5780   -5.7370 o         1 MOL     -0.728252
    152 O23         3.0910    1.2630   -5.5850 o         1 MOL     -0.728252
    153 H65         6.4900   -0.3910   -2.1470 hn        1 MOL      0.295962
    154 H66         7.3820    2.1780   -1.8040 h1        1 MOL      0.055253
    155 H67         6.7440    1.5160   -3.8690 hc        1 MOL      0.004105
    156 H68         5.9080    2.9500   -3.2700 hc        1 MOL      0.004105
    157 H69         3.8310    1.5930   -3.0300 hc        1 MOL     -0.073217
    158 H70         4.6880    0.1840   -3.6610 hc        1 MOL     -0.073217
    159 N14         4.6770    1.7970   -0.1430 n         1 MOL     -0.189143
    160 C53         3.6830    2.3130    0.8470 c3        1 MOL     -0.018322
    161 C54         4.2540    2.1330    2.2840 c         1 MOL      0.368670
    162 O24         3.7970    2.8170    3.2060 o         1 MOL     -0.544550
    163 C55         2.2770    1.6700    0.6620 c3        1 MOL      0.329660
    164 C56         1.4410    1.9380   -0.6390 c3        1 MOL     -0.137571
    165 C57         0.1950    1.0910   -0.6550 c         1 MOL      0.635107
    166 O25        -0.9430    1.6160   -0.7220 o         1 MOL     -0.747030
    167 O26         0.2080   -0.1470   -0.7060 o         1 MOL     -0.747030
    168 H71         4.5760    0.8160   -0.3410 hn        1 MOL      0.217036
    169 H72         3.5420    3.3900    0.7190 h1        1 MOL      0.063593
    170 H73         1.6030    2.0030    1.4380 hc        1 MOL     -0.029148
    171 H74         2.4660    0.5910    0.6430 hc        1 MOL     -0.029148
    172 H75         2.0960    1.6740   -1.4680 hc        1 MOL      0.046421
    173 H76         1.2300    2.9990   -0.7070 hc        1 MOL      0.046421
    174 N15         5.1570    1.2010    2.5330 n         1 MOL     -0.001110
    175 C58         5.8230    1.0100    3.8640 c3        1 MOL     -0.244505
    176 H77         5.5960    1.8580    4.5100 h1        1 MOL      0.091305
    177 H78         5.4560    0.0930    4.3250 h1        1 MOL      0.091305
    178 H79         6.9030    0.9400    3.7230 h1        1 MOL      0.091305
    179 H80         5.4760    0.6460    1.7490 hn        1 MOL     -0.023376
    180 Ca1        -2.5720   -0.4530   -1.1740 Ca        1 MOL      1.760770
    181 O27        -1.6090   -0.2150   -3.5490 oh        1 MOL     -0.850347
    182 H81        -0.8500    0.3450   -3.7040 ho        1 MOL      0.404602
    183 H82        -2.2830    0.1440   -4.1190 ho        1 MOL      0.404602
@<TRIPOS>BOND
     1    1    2 1   
     2    1    4 1   
     3    1    5 1   
     4    1    6 1   
     5    2    3 2   
     6    2    7 1   
     7    7    8 1   
     8    7   15 1   
     9    8    9 1   
    10    8   11 1   
    11    8   16 1   
    12    9   10 2   
    13    9   19 1   
    14   11   12 1   
    15   11   17 1   
    16   11   18 1   
    17   12   13 1   
    18   12   14 1   
    19   19   20 1   
    20   19   27 1   
    21   20   21 1   
    22   20   23 1   
    23   20   28 1   
    24   21   22 2   
    25   21   38 1   
    26   23   24 1   
    27   23   25 1   
    28   23   29 1   
    29   24   26 1   
    30   24   30 1   
    31   24   31 1   
    32   25   32 1   
    33   25   33 1   
    34   25   34 1   
    35   26   35 1   
    36   26   36 1   
    37   26   37 1   
    38   38   39 1   
    39   38   46 1   
    40   39   40 1   
    41   39   42 1   
    42   39   47 1   
    43   40   41 2   
    44   40   50 1   
    45   42   43 1   
    46   42   48 1   
    47   42   49 1   
    48   43   44 1   
    49   43   45 1   
    50   50   51 1   
    51   50   54 1   
    52   51   52 1   
    53   51   55 1   
    54   51   56 1   
    55   52   53 2   
    56   52   57 1   
    57   57   58 1   
    58   57   65 1   
    59   58   59 1   
    60   58   61 1   
    61   58   66 1   
    62   59   60 2   
    63   59   69 1   
    64   61   62 1   
    65   61   67 1   
    66   61   68 1   
    67   62   63 1   
    68   62   64 1   
    69   69   70 1   
    70   69   73 1   
    71   70   71 1   
    72   70   74 1   
    73   70   75 1   
    74   71   72 2   
    75   71   76 1   
    76   76   77 1   
    77   76   85 1   
    78   77   78 1   
    79   77   80 1   
    80   77   86 1   
    81   78   79 2   
    82   78   93 1   
    83   80   81 1   
    84   80   87 1   
    85   80   88 1   
    86   81   82 1   
    87   81   89 1   
    88   81   90 1   
    89   82   83 1   
    90   82   84 2   
    91   83   91 1   
    92   83   92 1   
    93   93   94 1   
    94   93  100 1   
    95   94   95 1   
    96   94   97 1   
    97   94  101 1   
    98   95   96 2   
    99   95  109 1   
   100   97   98 1   
   101   97   99 1   
   102   97  102 1   
   103   98  103 1   
   104   98  104 1   
   105   98  105 1   
   106   99  106 1   
   107   99  107 1   
   108   99  108 1   
   109  109  110 1   
   110  109  117 1   
   111  110  111 1   
   112  110  113 1   
   113  110  118 1   
   114  111  112 2   
   115  111  123 1   
   116  113  114 1   
   117  113  119 1   
   118  113  120 1   
   119  114  115 1   
   120  114  116 2   
   121  115  121 1   
   122  115  122 1   
   123  123  124 1   
   124  123  135 1   
   125  124  125 1   
   126  124  127 1   
   127  124  136 1   
   128  125  126 2   
   129  125  144 1   
   130  127  128 1   
   131  127  137 1   
   132  127  138 1   
   133  128  129 ar  
   134  128  130 ar  
   135  129  131 ar  
   136  129  139 1   
   137  130  132 ar  
   138  130  140 1   
   139  131  133 ar  
   140  131  141 1   
   141  132  133 ar  
   142  132  142 1   
   143  133  134 1   
   144  134  143 1   
   145  144  145 1   
   146  144  153 1   
   147  145  146 1   
   148  145  148 1   
   149  145  154 1   
   150  146  147 2   
   151  146  159 1   
   152  148  149 1   
   153  148  155 1   
   154  148  156 1   
   155  149  150 1   
   156  149  157 1   
   157  149  158 1   
   158  150  151 1   
   159  150  152 1   
   160  159  160 1   
   161  159  168 1   
   162  160  161 1   
   163  160  163 1   
   164  160  169 1   
   165  161  162 2   
   166  161  174 1   
   167  163  164 1   
   168  163  170 1   
   169  163  171 1   
   170  164  165 1   
   171  164  172 1   
   172  164  173 1   
   173  165  166 1   
   174  165  167 1   
   175  174  175 1   
   176  174  179 1   
   177  175  176 1   
   178  175  177 1   
   179  175  178 1   
   180  181  182 1   
   181  181  183 1   
@<TRIPOS>SUBSTRUCTURE
     1 MOL         1 TEMP              0 ****  ****    0 ROOT
