@<TRIPOS>MOLECULE
MOL
  189   185     1     0     0
SMALL
resp


@<TRIPOS>ATOM
      1 C1          0.4840   -3.0240    5.8110 c3        1 MOL     -0.447050
      2 C2          0.9200   -2.7950    4.3290 c         1 MOL      0.604722
      3 O1          0.4980   -1.8110    3.7290 o         1 MOL     -0.493876
      4 H1          1.2620   -3.5790    6.3360 hc        1 MOL      0.109172
      5 H2          0.3330   -2.0610    6.2990 hc        1 MOL      0.109172
      6 H3         -0.4450   -3.5930    5.8330 hc        1 MOL      0.109172
      7 N1          1.7280   -3.6920    3.8000 n         1 MOL     -0.432935
      8 C3          2.4300   -3.4000    2.5770 c3        1 MOL      0.093911
      9 C4          2.5020   -4.6930    1.7200 c         1 MOL      0.499805
     10 O2          2.5410   -5.8320    2.2120 o         1 MOL     -0.584325
     11 C5          3.9310   -2.9570    2.9530 c3        1 MOL     -0.385821
     12 C6          4.6800   -2.4290    1.7020 c         1 MOL      0.816442
     13 O3          4.0390   -1.9890    0.7480 o         1 MOL     -0.679509
     14 O4          5.8900   -2.5040    1.7320 o         1 MOL     -0.679509
     15 H4          1.8740   -4.5810    4.2600 hn        1 MOL      0.290401
     16 H5          1.9090   -2.6500    1.9700 h1        1 MOL      0.037140
     17 H6          4.4230   -3.8630    3.3250 hc        1 MOL      0.072595
     18 H7          3.9770   -2.1810    3.7070 hc        1 MOL      0.072595
     19 N2          2.4170   -4.3970    0.4460 n         1 MOL     -0.169740
     20 C7          2.4120   -5.4230   -0.5890 c3        1 MOL     -0.013144
     21 C8          3.5110   -5.0720   -1.5540 c         1 MOL      0.542626
     22 O5          4.0510   -6.0190   -2.0880 o         1 MOL     -0.587273
     23 C9          0.9940   -5.5510   -1.1400 c3        1 MOL      0.135338
     24 C10         0.0280   -6.2550   -0.1120 c3        1 MOL      0.183811
     25 C11         0.9840   -6.2910   -2.4880 c3        1 MOL     -0.278612
     26 C12         0.3530   -7.7190    0.2330 c3        1 MOL     -0.173397
     27 H8          2.2010   -3.4500    0.1690 hn        1 MOL      0.148591
     28 H9          2.7070   -6.4070   -0.2210 h1        1 MOL      0.045327
     29 H10         0.5410   -4.5570   -1.1920 hc        1 MOL      0.000691
     30 H11        -1.0270   -6.2560   -0.4050 hc        1 MOL     -0.029172
     31 H12         0.1170   -5.6980    0.8170 hc        1 MOL     -0.029172
     32 H13         1.5040   -5.7700   -3.2890 hc        1 MOL      0.058449
     33 H14         1.4490   -7.2780   -2.4060 hc        1 MOL      0.058449
     34 H15        -0.0660   -6.4810   -2.7100 hc        1 MOL      0.058449
     35 H16         1.1330   -7.7620    1.0060 hc        1 MOL      0.022593
     36 H17        -0.5370   -8.1010    0.7250 hc        1 MOL      0.022593
     37 H18         0.5330   -8.3530   -0.6340 hc        1 MOL      0.022593
     38 N3          3.8860   -3.8230   -1.7930 n         1 MOL     -0.320920
     39 C13         4.5180   -3.3900   -3.0460 c3        1 MOL      0.113573
     40 C14         5.8320   -2.6160   -2.8230 c         1 MOL      0.340684
     41 O6          6.6030   -2.5040   -3.7570 o         1 MOL     -0.544137
     42 C15         3.5310   -2.6600   -4.0140 c3        1 MOL     -0.184574
     43 C16         2.8480   -1.4270   -3.4790 c         1 MOL      0.794222
     44 O7          3.3150   -0.8750   -2.4580 o         1 MOL     -0.700417
     45 O8          1.7810   -1.1020   -3.9980 o         1 MOL     -0.700417
     46 H19         3.6580   -3.1900   -1.0340 hn        1 MOL      0.097170
     47 H20         4.8740   -4.3240   -3.4850 h1        1 MOL      0.069707
     48 H21         2.8200   -3.4580   -4.2550 hc        1 MOL      0.040336
     49 H22         4.0270   -2.4670   -4.9590 hc        1 MOL      0.040336
     50 N4          6.0950   -2.1420   -1.6230 n         1 MOL     -0.055159
     51 C17         7.3770   -1.4370   -1.3340 c3        1 MOL     -0.225360
     52 C18         7.4530   -0.0100   -1.8350 c         1 MOL      0.437598
     53 O9          8.6070    0.4190   -2.1100 o         1 MOL     -0.540595
     54 H23         5.4890   -2.3900   -0.8570 hn        1 MOL      0.117046
     55 H24         8.1680   -2.0420   -1.7710 h1        1 MOL      0.105499
     56 H25         7.4970   -1.3170   -0.2620 h1        1 MOL      0.105499
     57 N5          6.2860    0.6400   -2.1410 n         1 MOL     -0.052744
     58 C19         6.2570    2.0040   -2.7510 c3        1 MOL     -0.075140
     59 C20         6.8450    3.0540   -1.8180 c         1 MOL      0.437272
     60 O10         7.8290    3.7390   -2.1940 o         1 MOL     -0.549427
     61 C21         4.8110    2.3740   -3.3590 c3        1 MOL     -0.259731
     62 C22         3.6070    2.3040   -2.4170 c         1 MOL      0.706222
     63 O11         3.8040    1.8780   -1.2060 o         1 MOL     -0.671620
     64 O12         2.5170    2.4690   -2.9520 o         1 MOL     -0.671620
     65 H26         5.3920    0.1800   -2.0310 hn        1 MOL      0.094388
     66 H27         6.9070    2.0150   -3.6270 h1        1 MOL      0.075899
     67 H28         4.6840    1.6850   -4.1980 hc        1 MOL      0.088405
     68 H29         4.8330    3.3770   -3.7790 hc        1 MOL      0.088405
     69 N6          6.4220    2.8410   -0.5680 n         1 MOL     -0.152488
     70 C23         6.7120    3.7440    0.5840 c3        1 MOL     -0.258335
     71 C24         5.5340    4.3790    1.2550 c         1 MOL      0.543983
     72 O13         5.8210    5.1790    2.1540 o         1 MOL     -0.594497
     73 H30         5.7220    2.1260   -0.4590 hn        1 MOL      0.104361
     74 H31         7.3850    4.5570    0.3060 h1        1 MOL      0.126395
     75 H32         7.1200    3.1670    1.4200 h1        1 MOL      0.126395
     76 N7          4.2970    3.9990    0.9560 n         1 MOL     -0.212628
     77 C25         3.0410    4.4780    1.5460 c3        1 MOL     -0.038185
     78 C26         2.0290    3.3250    1.7740 c         1 MOL      0.618933
     79 O14         2.0340    2.2870    1.1400 o         1 MOL     -0.591931
     80 C27         2.4100    5.5670    0.7410 c3        1 MOL      0.182979
     81 C28         3.2860    6.7650    0.3270 c3        1 MOL     -0.395651
     82 C29         2.4290    7.8780   -0.2370 c         1 MOL      0.721444
     83 N8          2.0590    7.7430   -1.4430 n         1 MOL     -0.784055
     84 O15         2.0610    8.8780    0.3400 o         1 MOL     -0.613616
     85 H33         4.1220    3.2810    0.2690 hn        1 MOL      0.144727
     86 H34         3.2660    4.9580    2.4970 h1        1 MOL      0.035847
     87 H35         1.5500    6.0220    1.2380 hc        1 MOL     -0.007412
     88 H36         1.9560    5.1210   -0.1490 hc        1 MOL     -0.007412
     89 H37         3.9810    6.4230   -0.4380 hc        1 MOL      0.117880
     90 H38         3.7880    7.0770    1.2490 hc        1 MOL      0.117880
     91 H39         2.3690    6.9490   -1.9940 hn        1 MOL      0.362032
     92 H40         1.3440    8.3990   -1.7330 hn        1 MOL      0.362032
     93 N9          1.1210    3.4140    2.7500 n         1 MOL     -0.623135
     94 C30         0.0170    2.4510    2.9550 c3        1 MOL      0.091783
     95 C31        -1.1600    2.8620    2.0690 c         1 MOL      0.415277
     96 O16        -1.7020    3.9360    2.3650 o         1 MOL     -0.589592
     97 C32        -0.4890    2.3560    4.3850 c3        1 MOL      0.190283
     98 C33        -1.4300    1.1770    4.6050 c3        1 MOL     -0.145755
     99 C34         0.6800    2.2090    5.3390 c3        1 MOL     -0.145755
    100 H41         1.2080    4.2650    3.2870 hn        1 MOL      0.319321
    101 H42         0.3430    1.4620    2.6340 h1        1 MOL      0.177168
    102 H43        -0.9490    3.2760    4.7390 hc        1 MOL      0.006451
    103 H44        -2.4390    1.4610    4.2980 hc        1 MOL      0.015532
    104 H45        -1.0450    0.3140    4.0710 hc        1 MOL      0.015532
    105 H46        -1.6270    0.9940    5.6590 hc        1 MOL      0.015532
    106 H47         1.2360    1.2920    5.1900 hc        1 MOL      0.015532
    107 H48         1.2890    3.1200    5.3380 hc        1 MOL      0.015532
    108 H49         0.3190    2.2550    6.3600 hc        1 MOL      0.015532
    109 N10        -1.5970    2.0990    1.0540 n         1 MOL     -0.148569
    110 C35        -2.8120    2.3700    0.2370 c3        1 MOL      0.183118
    111 C36        -4.0940    1.9370    0.9650 c         1 MOL      0.386090
    112 O17        -4.1440    0.9860    1.7360 o         1 MOL     -0.446305
    113 C37        -2.5660    1.8300   -1.1900 c3        1 MOL     -0.416514
    114 C38        -3.8200    1.6840   -1.9770 c         1 MOL      0.724513
    115 N11        -4.1080    2.5480   -2.9020 n         1 MOL     -0.705678
    116 O18        -4.4860    0.6310   -1.8960 o         1 MOL     -0.459809
    117 H50        -1.0610    1.2700    0.8250 hn        1 MOL      0.110029
    118 H51        -2.8530    3.4490    0.1120 h1        1 MOL      0.031227
    119 H52        -1.8620    1.0000   -1.1590 hc        1 MOL      0.110590
    120 H53        -1.9830    2.6450   -1.6120 hc        1 MOL      0.110590
    121 H54        -3.8100    3.4970   -2.7240 hn        1 MOL      0.333202
    122 H55        -4.9210    2.3350   -3.4680 hn        1 MOL      0.333202
    123 N12        -5.2340    2.6780    0.6760 n         1 MOL     -0.473785
    124 C39        -6.5770    2.4400    1.2480 c3        1 MOL      0.303676
    125 C40        -7.0810    0.9360    1.1980 c         1 MOL      0.362398
    126 O19        -7.6340    0.5070    2.1630 o         1 MOL     -0.560782
    127 C41        -7.5500    3.3660    0.6130 c3        1 MOL     -0.086640
    128 C42        -7.9170    3.0230   -0.8170 ca        1 MOL      0.108224
    129 C43        -9.2100    2.4890   -1.0170 ca        1 MOL     -0.313034
    130 C44        -6.9900    3.2090   -1.9070 ca        1 MOL     -0.313034
    131 C45        -9.6360    2.1470   -2.2910 ca        1 MOL     -0.190034
    132 C46        -7.5240    2.9980   -3.2200 ca        1 MOL     -0.190034
    133 C47        -8.8070    2.4910   -3.3870 ca        1 MOL      0.350003
    134 O20        -9.3890    2.3200   -4.6310 oh        1 MOL     -0.555683
    135 H56        -4.9800    3.5090    0.1600 hn        1 MOL      0.207278
    136 H57        -6.6460    2.7160    2.3010 h1        1 MOL      0.004064
    137 H58        -7.1070    4.3610    0.6030 hc        1 MOL      0.029486
    138 H59        -8.3010    3.4320    1.3930 hc        1 MOL      0.029486
    139 H60        -9.8850    2.2930   -0.2000 ha        1 MOL      0.171186
    140 H61        -5.9830    3.5760   -1.7630 ha        1 MOL      0.171186
    141 H62       -10.5890    1.6840   -2.4590 ha        1 MOL      0.142379
    142 H63        -6.9610    3.3930   -4.0580 ha        1 MOL      0.142379
    143 H64       -10.2380    1.8700   -4.6040 ho        1 MOL      0.401201
    144 N13        -6.8270    0.1640    0.1500 n         1 MOL     -0.040939
    145 C48        -7.1880   -1.2030    0.0830 c3        1 MOL     -0.112989
    146 C49        -6.0740   -2.1550    0.5540 c         1 MOL      0.333022
    147 O21        -6.3960   -3.1660    1.1270 o         1 MOL     -0.496071
    148 C50        -7.4740   -1.4340   -1.4220 c3        1 MOL      0.146827
    149 C51        -7.8360   -2.8730   -1.8380 c3        1 MOL     -0.465404
    150 C52        -7.9380   -2.8300   -3.3790 c         1 MOL      0.753255
    151 O22        -6.9690   -2.6930   -4.1950 o         1 MOL     -0.746482
    152 O23        -9.0990   -2.9860   -3.8620 o         1 MOL     -0.746482
    153 H65        -6.2350    0.5200   -0.5940 hn        1 MOL      0.092006
    154 H66        -8.1010   -1.4580    0.6100 h1        1 MOL      0.113151
    155 H67        -6.5940   -1.2120   -2.0200 hc        1 MOL      0.008750
    156 H68        -8.2750   -0.7720   -1.7850 hc        1 MOL      0.008750
    157 H69        -8.7470   -3.2060   -1.3300 hc        1 MOL      0.099404
    158 H70        -6.9900   -3.5400   -1.6810 hc        1 MOL      0.099404
    159 N14        -4.7390   -1.8610    0.4730 n         1 MOL     -0.011322
    160 C53        -3.6280   -2.5670    1.0900 c3        1 MOL     -0.421996
    161 C54        -3.7410   -2.8240    2.5740 c         1 MOL      0.517923
    162 O24        -3.3810   -3.9290    3.0650 o         1 MOL     -0.550081
    163 C55        -2.3840   -1.8190    0.5900 c3        1 MOL      0.228669
    164 C56        -1.0590   -2.5430    0.8060 c3        1 MOL     -0.152763
    165 C57         0.1720   -1.6190    0.5370 c         1 MOL      0.694831
    166 O25         0.2380   -0.4330    0.8590 o         1 MOL     -0.686728
    167 O26         1.0460   -2.0560   -0.3020 o         1 MOL     -0.686728
    168 H71        -4.3870   -1.1630   -0.1660 hn        1 MOL      0.086891
    169 H72        -3.7530   -3.5510    0.6430 h1        1 MOL      0.154196
    170 H73        -2.2940   -0.9150    1.2030 hc        1 MOL      0.024969
    171 H74        -2.4340   -1.4860   -0.4500 hc        1 MOL      0.024969
    172 H75        -0.9730   -3.4770    0.2570 hc        1 MOL      0.013266
    173 H76        -0.9320   -2.8030    1.8580 hc        1 MOL      0.013266
    174 N15        -4.2950   -1.8000    3.2290 n         1 MOL     -0.055355
    175 C58        -4.4860   -1.7610    4.6590 c3        1 MOL     -0.391253
    176 H77        -4.9930   -0.8360    4.9320 h1        1 MOL      0.130737
    177 H78        -5.0930   -2.6130    4.9680 h1        1 MOL      0.130737
    178 H79        -3.5180   -1.8040    5.1560 h1        1 MOL      0.130737
    179 H80        -4.3630   -0.9230    2.7310 hn        1 MOL      0.189705
    180 Ca1         2.6240   -0.0430   -0.1790 Ca        1 MOL      1.743529
    181 O27         2.4620   -0.2520    2.6140 oh        1 MOL     -0.845710
    182 H81         2.9200   -0.2030    3.4520 ho        1 MOL      0.407951
    183 H82         1.5660   -0.5030    2.8380 ho        1 MOL      0.407951
    184 O28         4.9700    0.8270    1.2160 oh        1 MOL     -0.845710
    185 H83         5.5790    1.3140    1.7760 ho        1 MOL      0.407951
    186 H84         4.9780   -0.0570    1.5760 ho        1 MOL      0.407951
    187 O29         0.9000    0.7650   -2.1410 oh        1 MOL     -0.845710
    188 H85         1.2230    1.6380   -2.3660 ho        1 MOL      0.407951
    189 H86         1.0180    0.2520   -2.9400 ho        1 MOL      0.407951
@<TRIPOS>BOND
     1    1    2 1   
     2    1    4 1   
     3    1    5 1   
     4    1    6 1   
     5    2    3 2   
     6    2    7 1   
     7    7    8 1   
     8    7   15 1   
     9    8    9 1   
    10    8   11 1   
    11    8   16 1   
    12    9   10 2   
    13    9   19 1   
    14   11   12 1   
    15   11   17 1   
    16   11   18 1   
    17   12   13 1   
    18   12   14 1   
    19   19   20 1   
    20   19   27 1   
    21   20   21 1   
    22   20   23 1   
    23   20   28 1   
    24   21   22 2   
    25   21   38 1   
    26   23   24 1   
    27   23   25 1   
    28   23   29 1   
    29   24   26 1   
    30   24   30 1   
    31   24   31 1   
    32   25   32 1   
    33   25   33 1   
    34   25   34 1   
    35   26   35 1   
    36   26   36 1   
    37   26   37 1   
    38   38   39 1   
    39   38   46 1   
    40   39   40 1   
    41   39   42 1   
    42   39   47 1   
    43   40   41 2   
    44   40   50 1   
    45   42   43 1   
    46   42   48 1   
    47   42   49 1   
    48   43   44 1   
    49   43   45 1   
    50   50   51 1   
    51   50   54 1   
    52   51   52 1   
    53   51   55 1   
    54   51   56 1   
    55   52   53 2   
    56   52   57 1   
    57   57   58 1   
    58   57   65 1   
    59   58   59 1   
    60   58   61 1   
    61   58   66 1   
    62   59   60 2   
    63   59   69 1   
    64   61   62 1   
    65   61   67 1   
    66   61   68 1   
    67   62   63 1   
    68   62   64 1   
    69   69   70 1   
    70   69   73 1   
    71   70   71 1   
    72   70   74 1   
    73   70   75 1   
    74   71   72 2   
    75   71   76 1   
    76   76   77 1   
    77   76   85 1   
    78   77   78 1   
    79   77   80 1   
    80   77   86 1   
    81   78   79 2   
    82   78   93 1   
    83   80   81 1   
    84   80   87 1   
    85   80   88 1   
    86   81   82 1   
    87   81   89 1   
    88   81   90 1   
    89   82   83 1   
    90   82   84 2   
    91   83   91 1   
    92   83   92 1   
    93   93   94 1   
    94   93  100 1   
    95   94   95 1   
    96   94   97 1   
    97   94  101 1   
    98   95   96 2   
    99   95  109 1   
   100   97   98 1   
   101   97   99 1   
   102   97  102 1   
   103   98  103 1   
   104   98  104 1   
   105   98  105 1   
   106   99  106 1   
   107   99  107 1   
   108   99  108 1   
   109  109  110 1   
   110  109  117 1   
   111  110  111 1   
   112  110  113 1   
   113  110  118 1   
   114  111  112 2   
   115  111  123 1   
   116  113  114 1   
   117  113  119 1   
   118  113  120 1   
   119  114  115 1   
   120  114  116 2   
   121  115  121 1   
   122  115  122 1   
   123  123  124 1   
   124  123  135 1   
   125  124  125 1   
   126  124  127 1   
   127  124  136 1   
   128  125  126 2   
   129  125  144 1   
   130  127  128 1   
   131  127  137 1   
   132  127  138 1   
   133  128  129 ar  
   134  128  130 ar  
   135  129  131 ar  
   136  129  139 1   
   137  130  132 ar  
   138  130  140 1   
   139  131  133 ar  
   140  131  141 1   
   141  132  133 ar  
   142  132  142 1   
   143  133  134 1   
   144  134  143 1   
   145  144  145 1   
   146  144  153 1   
   147  145  146 1   
   148  145  148 1   
   149  145  154 1   
   150  146  147 2   
   151  146  159 1   
   152  148  149 1   
   153  148  155 1   
   154  148  156 1   
   155  149  150 1   
   156  149  157 1   
   157  149  158 1   
   158  150  151 1   
   159  150  152 1   
   160  159  160 1   
   161  159  168 1   
   162  160  161 1   
   163  160  163 1   
   164  160  169 1   
   165  161  162 2   
   166  161  174 1   
   167  163  164 1   
   168  163  170 1   
   169  163  171 1   
   170  164  165 1   
   171  164  172 1   
   172  164  173 1   
   173  165  166 1   
   174  165  167 1   
   175  174  175 1   
   176  174  179 1   
   177  175  176 1   
   178  175  177 1   
   179  175  178 1   
   180  181  182 1   
   181  181  183 1   
   182  184  185 1   
   183  184  186 1   
   184  187  188 1   
   185  187  189 1   
@<TRIPOS>SUBSTRUCTURE
     1 MOL         1 TEMP              0 ****  ****    0 ROOT
