@<TRIPOS>MOLECULE
MOL
  176   174     1     0     0
SMALL
resp


@<TRIPOS>ATOM
      1 C1          0.1410   -4.2500    6.3800 c3        1 MOL     -0.370386
      2 C2          0.2230   -3.7730    4.8920 c         1 MOL      0.674286
      3 O1         -0.6130   -4.2460    4.1300 o         1 MOL     -0.565133
      4 H1          0.1330   -5.3390    6.4110 hc        1 MOL      0.093422
      5 H2          1.0050   -3.8760    6.9300 hc        1 MOL      0.093422
      6 H3         -0.7720   -3.8670    6.8350 hc        1 MOL      0.093422
      7 N1          1.1820   -2.9130    4.5520 n         1 MOL     -0.515550
      8 C3          1.5080   -2.6000    3.1840 c3        1 MOL      0.128071
      9 C4          1.8510   -3.9410    2.5170 c         1 MOL      0.566768
     10 O2          2.7610   -4.5810    2.9050 o         1 MOL     -0.553042
     11 C5          2.5630   -1.5490    3.0970 c3        1 MOL     -0.267103
     12 C6          2.9500   -1.1390    1.6610 c         1 MOL      0.905841
     13 O3          2.9330   -1.9710    0.7000 o         1 MOL     -0.766743
     14 O4          3.0810    0.0200    1.3740 o         1 MOL     -0.766743
     15 H4          1.7470   -2.4220    5.2240 hn        1 MOL      0.308061
     16 H5          0.6260   -2.2470    2.6350 h1        1 MOL     -0.004059
     17 H6          3.4670   -1.8760    3.6060 hc        1 MOL      0.060163
     18 H7          2.2300   -0.6670    3.6400 hc        1 MOL      0.060163
     19 N2          1.1760   -4.1440    1.3480 n         1 MOL     -0.277173
     20 C7          1.3160   -5.4050    0.5350 c3        1 MOL     -0.184783
     21 C8          2.5930   -5.5140   -0.2490 c         1 MOL      0.619679
     22 O5          2.8600   -6.6820   -0.6250 o         1 MOL     -0.602587
     23 C9          0.1480   -5.6930   -0.3790 c3        1 MOL     -0.085961
     24 C10         0.0700   -4.8840   -1.6880 c3        1 MOL      0.010295
     25 C11        -1.3110   -5.1020   -2.4230 c3        1 MOL     -0.213584
     26 C12        -1.2810   -6.4890   -2.9600 c3        1 MOL      0.126889
     27 N3         -0.6160   -6.6940   -4.2550 n4        1 MOL     -0.359315
     28 H8          0.5130   -3.4510    1.0540 hn        1 MOL      0.201419
     29 H9          1.2560   -6.1830    1.2850 h1        1 MOL      0.142236
     30 H10        -0.7520   -5.4640    0.1830 hc        1 MOL      0.061802
     31 H11         0.1130   -6.7720   -0.5500 hc        1 MOL      0.061802
     32 H12         0.9190   -5.0300   -2.3530 hc        1 MOL      0.040248
     33 H13         0.0600   -3.8770   -1.2760 hc        1 MOL      0.040248
     34 H14        -1.5350   -4.3600   -3.1900 hc        1 MOL      0.097374
     35 H15        -2.1030   -5.0780   -1.6780 hc        1 MOL      0.097374
     36 H16        -2.3200   -6.7940   -3.0740 hx        1 MOL      0.051327
     37 H17        -0.8800   -7.1700   -2.2150 hx        1 MOL      0.051327
     38 H18        -1.1150   -6.3650   -5.0720 hn        1 MOL      0.322945
     39 H19         0.2720   -6.2090   -4.2780 hn        1 MOL      0.322945
     40 H20        -0.5420   -7.6900   -4.4080 hn        1 MOL      0.322945
     41 N4          3.3320   -4.4190   -0.4200 n         1 MOL     -0.408373
     42 C13         4.4480   -4.4240   -1.2900 c3        1 MOL      0.063792
     43 C14         5.7160   -3.6430   -0.7830 c         1 MOL      0.471354
     44 O6          6.7460   -3.9230   -1.3570 o         1 MOL     -0.532305
     45 C15         3.9990   -3.8100   -2.6090 c3        1 MOL     -0.250822
     46 C16         3.2540   -2.4730   -2.4710 c         1 MOL      0.826202
     47 O7          2.0040   -2.4750   -2.6170 o         1 MOL     -0.776623
     48 O8          3.9520   -1.5360   -2.1520 o         1 MOL     -0.776623
     49 H21         2.9360   -3.5460   -0.1000 hn        1 MOL      0.228080
     50 H22         4.7400   -5.4440   -1.5540 h1        1 MOL      0.106649
     51 H23         3.3720   -4.5270   -3.1370 hc        1 MOL      0.051446
     52 H24         4.9110   -3.6080   -3.1610 hc        1 MOL      0.051446
     53 N5          5.6180   -2.7950    0.2660 n         1 MOL     -0.285172
     54 C17         6.6600   -1.8530    0.7660 c3        1 MOL     -0.229503
     55 C18         6.9910   -0.5980   -0.0370 c         1 MOL      0.552299
     56 O9          7.9330    0.0690    0.3960 o         1 MOL     -0.585894
     57 H25         4.6880   -2.7050    0.6320 hn        1 MOL      0.222140
     58 H26         7.5720   -2.4560    0.7310 h1        1 MOL      0.129408
     59 H27         6.4360   -1.6660    1.8120 h1        1 MOL      0.129408
     60 N6          6.3280   -0.2330   -1.1080 n         1 MOL     -0.310064
     61 C19         6.5100    1.0610   -1.7660 c3        1 MOL      0.009303
     62 C20         6.1990    2.2270   -0.8260 c         1 MOL      0.361339
     63 O10         6.3780    3.3440   -1.1990 o         1 MOL     -0.491460
     64 C21         5.6090    1.1250   -3.0120 c3        1 MOL     -0.282254
     65 C22         4.1440    1.6250   -2.6770 c         1 MOL      0.668390
     66 N7          3.5870    2.4750   -3.4950 n         1 MOL     -0.767856
     67 O11         3.4800    1.3910   -1.6890 o         1 MOL     -0.545984
     68 H28         5.5380   -0.8090   -1.3710 hn        1 MOL      0.272356
     69 H29         7.5430    1.1720   -2.0990 h1        1 MOL      0.125338
     70 H30         5.6370    0.1820   -3.5460 hc        1 MOL      0.112962
     71 H31         6.0900    1.7980   -3.7140 hc        1 MOL      0.112962
     72 H32         4.0580    2.7980   -4.3370 hn        1 MOL      0.365450
     73 H33         2.7750    2.9640   -3.1510 hn        1 MOL      0.365450
     74 N8          5.5550    1.9710    0.3180 n         1 MOL     -0.040329
     75 C23         5.4450    2.9990    1.3720 c3        1 MOL     -0.301185
     76 C24         4.1000    3.7560    1.3760 c         1 MOL      0.485524
     77 O12         4.0780    4.7710    2.1000 o         1 MOL     -0.544037
     78 H34         5.1960    1.0420    0.5180 hn        1 MOL      0.197406
     79 H35         6.3370    3.6270    1.3530 h1        1 MOL      0.139886
     80 H36         5.4570    2.4070    2.2820 h1        1 MOL      0.139886
     81 N9          3.0700    3.4150    0.6210 n         1 MOL     -0.057351
     82 C25         1.6880    3.9810    0.7860 c3        1 MOL      0.199898
     83 C26         0.6860    2.7430    0.9270 c         1 MOL      0.393909
     84 O13         0.7960    1.7330    0.2650 o         1 MOL     -0.485092
     85 C27         1.3930    4.9830   -0.3490 c3        1 MOL      0.107553
     86 C28         1.9830    6.3630   -0.2150 ca        1 MOL     -0.019206
     87 C29         3.2230    6.5690   -0.8440 ca        1 MOL     -0.183915
     88 C30         1.3880    7.4290    0.4710 ca        1 MOL     -0.183915
     89 C31         3.8610    7.8020   -0.7400 ca        1 MOL     -0.170779
     90 C32         2.0900    8.6840    0.5510 ca        1 MOL     -0.170779
     91 C33         3.2930    8.8530   -0.0890 ca        1 MOL      0.266858
     92 O14         3.9320   10.1060   -0.1330 oh        1 MOL     -0.453257
     93 H37         3.1460    2.5420    0.1080 hn        1 MOL     -0.011452
     94 H38         1.5860    4.5430    1.7090 h1        1 MOL     -0.009090
     95 H39         0.3050    5.1000   -0.2430 hc        1 MOL     -0.028767
     96 H40         1.6070    4.6120   -1.3510 hc        1 MOL     -0.028767
     97 H41         3.7850    5.7530   -1.2720 ha        1 MOL      0.129767
     98 H42         0.3680    7.4330    0.8410 ha        1 MOL      0.129767
     99 H43         4.7800    7.9930   -1.2860 ha        1 MOL      0.130535
    100 H44         1.6220    9.4730    1.1170 ha        1 MOL      0.130535
    101 H45         3.2900   10.6960    0.2760 ho        1 MOL      0.318441
    102 N10        -0.4380    2.9570    1.6340 n         1 MOL     -0.544108
    103 C34        -1.7130    2.2040    1.5260 c3        1 MOL      0.101377
    104 C35        -2.7190    3.1250    0.8270 c         1 MOL      0.621709
    105 O15        -2.6490    4.3680    0.9900 o         1 MOL     -0.554787
    106 C36        -2.1670    1.7940    3.0090 c3        1 MOL     -0.000053
    107 C37        -1.6450    0.3820    3.3380 c3        1 MOL      0.035023
    108 C38        -3.6990    1.7800    3.2460 c3        1 MOL     -0.256240
    109 C39        -1.9360   -0.2160    4.7360 c3        1 MOL     -0.094849
    110 H46        -0.5420    3.8910    2.0150 hn        1 MOL      0.333991
    111 H47        -1.5910    1.3070    0.9150 h1        1 MOL      0.014406
    112 H48        -1.7490    2.5100    3.7180 hc        1 MOL      0.044957
    113 H49        -0.5550    0.3790    3.2480 hc        1 MOL      0.037961
    114 H50        -1.9970   -0.3340    2.5960 hc        1 MOL      0.037961
    115 H51        -4.2690    1.3730    2.4170 hc        1 MOL      0.052879
    116 H52        -3.9930    1.2580    4.1530 hc        1 MOL      0.052879
    117 H53        -3.9720    2.8390    3.3300 hc        1 MOL      0.052879
    118 H54        -1.1020   -0.9210    4.8320 hc        1 MOL      0.027182
    119 H55        -1.8740    0.4050    5.6420 hc        1 MOL      0.027182
    120 H56        -2.9070   -0.6890    4.8260 hc        1 MOL      0.027182
    121 N11        -3.6750    2.5170    0.1420 n         1 MOL     -0.372328
    122 C40        -4.8220    3.2630   -0.2720 c3        1 MOL      0.016973
    123 C41        -6.0600    2.5100   -0.0370 c         1 MOL      0.398383
    124 O16        -6.0150    1.3680    0.4590 o         1 MOL     -0.260335
    125 C42        -4.7030    3.4850   -1.8190 c3        1 MOL      0.020872
    126 O17        -4.6770    2.2410   -2.4810 oh        1 MOL     -0.534346
    127 H57        -3.6500    1.5550   -0.1670 hn        1 MOL      0.256178
    128 H58        -4.8910    4.2820    0.1100 h1        1 MOL      0.086040
    129 H59        -3.7460    3.9710   -1.9940 h1        1 MOL      0.078919
    130 H60        -5.4800    4.1600   -2.1700 h1        1 MOL      0.078919
    131 H61        -3.9110    1.6910   -2.2770 ho        1 MOL      0.384129
    132 N12        -7.2950    3.1330   -0.1440 n         1 MOL     -0.484420
    133 C43        -8.5070    2.3100    0.0730 c3        1 MOL      0.142041
    134 C44        -8.7220    1.0470   -0.8290 c         1 MOL      0.334849
    135 O18        -9.2950    0.0290   -0.3750 o         1 MOL     -0.500348
    136 C45        -9.7430    3.1650   -0.1380 c3        1 MOL     -0.365278
    137 H62        -7.3810    4.0740   -0.5070 hn        1 MOL      0.314482
    138 H63        -8.4320    1.9060    1.0770 h1        1 MOL      0.095628
    139 H64       -10.6880    2.6520    0.0290 hc        1 MOL      0.116670
    140 H65        -9.8210    3.9640    0.6030 hc        1 MOL      0.116670
    141 H66        -9.6950    3.5000   -1.1760 hc        1 MOL      0.116670
    142 N13        -7.9670    0.8880   -1.9250 n         1 MOL     -0.190698
    143 C46        -7.8550   -0.3350   -2.7090 c3        1 MOL      0.037792
    144 C47        -6.9410   -1.4010   -2.0250 c         1 MOL      0.387232
    145 O19        -7.2030   -2.5780   -1.9720 o         1 MOL     -0.509705
    146 C48        -7.5180   -0.0000   -4.1880 c3        1 MOL     -0.306673
    147 H67        -7.5620    1.7670   -2.2050 hn        1 MOL      0.222647
    148 H68        -8.8560   -0.7550   -2.7300 h1        1 MOL      0.121317
    149 H69        -7.2270   -0.9040   -4.7140 hc        1 MOL      0.092055
    150 H70        -8.4180    0.4480   -4.6110 hc        1 MOL      0.092055
    151 H71        -6.6170    0.5970   -4.2370 hc        1 MOL      0.092055
    152 N14        -5.9660   -0.9310   -1.2490 n         1 MOL     -0.037137
    153 C49        -5.0090   -1.7560   -0.4670 c3        1 MOL     -0.037870
    154 C50        -5.5470   -2.1630    0.9330 c         1 MOL      0.454039
    155 O20        -5.5080   -3.3270    1.2780 o         1 MOL     -0.509384
    156 C51        -3.6120   -1.0770   -0.4300 c3        1 MOL     -0.237817
    157 C52        -2.4850   -2.0830   -0.0000 c3        1 MOL      0.196985
    158 C53        -1.1310   -1.5830   -0.3330 c         1 MOL      0.667171
    159 O21        -0.8770   -1.0090   -1.4650 o         1 MOL     -0.746185
    160 O22        -0.2000   -1.8310    0.4600 o         1 MOL     -0.746185
    161 H72        -5.9480    0.0750   -1.1200 hn        1 MOL     -0.059132
    162 H73        -4.8650   -2.7010   -0.9810 h1        1 MOL      0.089359
    163 H74        -3.5570   -0.2940    0.3240 hc        1 MOL      0.028497
    164 H75        -3.4560   -0.6600   -1.4220 hc        1 MOL      0.028497
    165 H76        -2.7360   -3.0910   -0.3470 hc        1 MOL     -0.010299
    166 H77        -2.5860   -2.2020    1.0790 hc        1 MOL     -0.010299
    167 N15        -6.3610   -1.2190    1.4940 n         1 MOL     -0.091603
    168 C54        -7.1570   -1.5520    2.7310 c3        1 MOL     -0.327603
    169 H78        -6.6460   -2.3370    3.2900 h1        1 MOL      0.127845
    170 H79        -7.2500   -0.6630    3.3540 h1        1 MOL      0.127845
    171 H80        -8.1500   -1.9000    2.4430 h1        1 MOL      0.127845
    172 H81        -6.3640   -0.2860    1.0980 hn        1 MOL      0.112283
    173 Ca1         1.7270   -0.4690   -0.8830 Ca        1 MOL      1.697535
    174 O23         0.9990    0.7730   -3.0580 oh        1 MOL     -0.885127
    175 H82         0.7450    1.5610   -3.5400 ho        1 MOL      0.428785
    176 H83         0.6630    0.0540   -3.5940 ho        1 MOL      0.428785
@<TRIPOS>BOND
     1    1    2 1   
     2    1    4 1   
     3    1    5 1   
     4    1    6 1   
     5    2    3 2   
     6    2    7 1   
     7    7    8 1   
     8    7   15 1   
     9    8    9 1   
    10    8   11 1   
    11    8   16 1   
    12    9   10 2   
    13    9   19 1   
    14   11   12 1   
    15   11   17 1   
    16   11   18 1   
    17   12   13 1   
    18   12   14 1   
    19   19   20 1   
    20   19   28 1   
    21   20   21 1   
    22   20   23 1   
    23   20   29 1   
    24   21   22 2   
    25   21   41 1   
    26   23   24 1   
    27   23   30 1   
    28   23   31 1   
    29   24   25 1   
    30   24   32 1   
    31   24   33 1   
    32   25   26 1   
    33   25   34 1   
    34   25   35 1   
    35   26   27 1   
    36   26   36 1   
    37   26   37 1   
    38   27   38 1   
    39   27   39 1   
    40   27   40 1   
    41   41   42 1   
    42   41   49 1   
    43   42   43 1   
    44   42   45 1   
    45   42   50 1   
    46   43   44 2   
    47   43   53 1   
    48   45   46 1   
    49   45   51 1   
    50   45   52 1   
    51   46   47 1   
    52   46   48 1   
    53   53   54 1   
    54   53   57 1   
    55   54   55 1   
    56   54   58 1   
    57   54   59 1   
    58   55   56 2   
    59   55   60 1   
    60   60   61 1   
    61   60   68 1   
    62   61   62 1   
    63   61   64 1   
    64   61   69 1   
    65   62   63 2   
    66   62   74 1   
    67   64   65 1   
    68   64   70 1   
    69   64   71 1   
    70   65   66 1   
    71   65   67 2   
    72   66   72 1   
    73   66   73 1   
    74   74   75 1   
    75   74   78 1   
    76   75   76 1   
    77   75   79 1   
    78   75   80 1   
    79   76   77 2   
    80   76   81 1   
    81   81   82 1   
    82   81   93 1   
    83   82   83 1   
    84   82   85 1   
    85   82   94 1   
    86   83   84 2   
    87   83  102 1   
    88   85   86 1   
    89   85   95 1   
    90   85   96 1   
    91   86   87 ar  
    92   86   88 ar  
    93   87   89 ar  
    94   87   97 1   
    95   88   90 ar  
    96   88   98 1   
    97   89   91 ar  
    98   89   99 1   
    99   90   91 ar  
   100   90  100 1   
   101   91   92 1   
   102   92  101 1   
   103  102  103 1   
   104  102  110 1   
   105  103  104 1   
   106  103  106 1   
   107  103  111 1   
   108  104  105 2   
   109  104  121 1   
   110  106  107 1   
   111  106  108 1   
   112  106  112 1   
   113  107  109 1   
   114  107  113 1   
   115  107  114 1   
   116  108  115 1   
   117  108  116 1   
   118  108  117 1   
   119  109  118 1   
   120  109  119 1   
   121  109  120 1   
   122  121  122 1   
   123  121  127 1   
   124  122  123 1   
   125  122  125 1   
   126  122  128 1   
   127  123  124 2   
   128  123  132 1   
   129  125  126 1   
   130  125  129 1   
   131  125  130 1   
   132  126  131 1   
   133  132  133 1   
   134  132  137 1   
   135  133  134 1   
   136  133  136 1   
   137  133  138 1   
   138  134  135 2   
   139  134  142 1   
   140  136  139 1   
   141  136  140 1   
   142  136  141 1   
   143  142  143 1   
   144  142  147 1   
   145  143  144 1   
   146  143  146 1   
   147  143  148 1   
   148  144  145 2   
   149  144  152 1   
   150  146  149 1   
   151  146  150 1   
   152  146  151 1   
   153  152  153 1   
   154  152  161 1   
   155  153  154 1   
   156  153  156 1   
   157  153  162 1   
   158  154  155 2   
   159  154  167 1   
   160  156  157 1   
   161  156  163 1   
   162  156  164 1   
   163  157  158 1   
   164  157  165 1   
   165  157  166 1   
   166  158  159 1   
   167  158  160 1   
   168  167  168 1   
   169  167  172 1   
   170  168  169 1   
   171  168  170 1   
   172  168  171 1   
   173  174  175 1   
   174  174  176 1   
@<TRIPOS>SUBSTRUCTURE
     1 MOL         1 TEMP              0 ****  ****    0 ROOT
