@<TRIPOS>MOLECULE
MOL
  183   181     1     0     0
SMALL
resp


@<TRIPOS>ATOM
      1 C1         -0.0150    1.8560    5.9890 c3        1 MOL     -0.306047
      2 C2         -0.7570    1.9220    4.6190 c         1 MOL      0.840675
      3 O1         -0.2140    2.6440    3.7650 o         1 MOL     -0.647344
      4 H1          1.0620    1.8800    5.8200 hc        1 MOL      0.067094
      5 H2         -0.3050    2.7100    6.6010 hc        1 MOL      0.067094
      6 H3         -0.2810    0.9320    6.5030 hc        1 MOL      0.067094
      7 N1         -1.9420    1.3510    4.4030 n         1 MOL     -0.783176
      8 C3         -2.5360    1.3320    3.0550 c3        1 MOL      0.253043
      9 C4         -2.9960    2.7450    2.6920 c         1 MOL      0.510785
     10 O2         -3.8020    3.3470    3.4250 o         1 MOL     -0.606767
     11 C5         -3.7720    0.4280    3.1200 c3        1 MOL     -0.073444
     12 C6         -4.3750    0.0420    1.7750 c         1 MOL      0.736653
     13 O3         -5.3910   -0.7040    1.8260 o         1 MOL     -0.716161
     14 O4         -3.8910    0.4460    0.7350 o         1 MOL     -0.716161
     15 H4         -2.5290    0.9600    5.1180 hn        1 MOL      0.356417
     16 H5         -1.7980    0.9080    2.3660 h1        1 MOL      0.052514
     17 H6         -4.5300    0.7370    3.8420 hc        1 MOL     -0.003606
     18 H7         -3.3150   -0.4860    3.5030 hc        1 MOL     -0.003606
     19 N2         -2.5330    3.2810    1.5790 n         1 MOL     -0.123484
     20 C7         -2.7240    4.6820    1.2540 c3        1 MOL     -0.222855
     21 C8         -3.9370    4.9350    0.3490 c         1 MOL      0.505807
     22 O5         -4.4130    6.0540    0.2100 o         1 MOL     -0.582924
     23 C9         -1.4480    5.3090    0.6670 c3        1 MOL      0.141419
     24 C10        -0.9580    4.9200   -0.6820 c3        1 MOL     -0.033793
     25 C11        -0.4010    5.1630    1.7730 c3        1 MOL      0.003974
     26 C12        -1.5980    5.6490   -1.8430 c3        1 MOL     -0.302670
     27 H8         -1.7900    2.8170    1.0720 hn        1 MOL      0.249733
     28 H9         -2.9940    5.1860    2.1840 h1        1 MOL      0.104592
     29 H10        -1.7000    6.3670    0.5980 hc        1 MOL     -0.007747
     30 H11        -1.1010    3.8430   -0.7470 hc        1 MOL      0.028483
     31 H12         0.1130    5.0960   -0.6960 hc        1 MOL      0.028483
     32 H13        -0.6610    5.6320    2.7300 hc        1 MOL     -0.006034
     33 H14         0.0140    4.1610    1.7300 hc        1 MOL     -0.006034
     34 H15         0.4430    5.7770    1.4720 hc        1 MOL     -0.006034
     35 H16        -1.1000    5.2590   -2.7300 hc        1 MOL      0.081113
     36 H17        -2.6690    5.4580   -1.7480 hc        1 MOL      0.081113
     37 H18        -1.4700    6.7240   -1.7210 hc        1 MOL      0.081113
     38 N3         -4.4320    3.8770   -0.2830 n         1 MOL     -0.316387
     39 C13        -5.5430    3.9330   -1.3130 c3        1 MOL     -0.001362
     40 C14        -6.6570    2.9150   -0.9790 c         1 MOL      0.360774
     41 O6         -7.6630    2.8460   -1.7850 o         1 MOL     -0.522910
     42 C15        -4.8940    3.8060   -2.7200 c3        1 MOL     -0.047750
     43 C16        -3.9830    2.6300   -2.9960 c         1 MOL      0.714289
     44 O7         -3.3080    2.6660   -4.0530 o         1 MOL     -0.694856
     45 O8         -3.8690    1.7480   -2.0960 o         1 MOL     -0.694856
     46 H19        -3.8940    3.0220   -0.2680 hn        1 MOL      0.214154
     47 H20        -6.1160    4.8560   -1.2260 h1        1 MOL      0.100015
     48 H21        -4.4180    4.7620   -2.9320 hc        1 MOL      0.015572
     49 H22        -5.6950    3.8160   -3.4600 hc        1 MOL      0.015572
     50 N4         -6.5150    2.1180    0.1060 n         1 MOL     -0.158686
     51 C17        -7.6000    1.3350    0.6750 c3        1 MOL     -0.131582
     52 C18        -8.0450    0.1660   -0.1800 c         1 MOL      0.458529
     53 O9         -9.2270   -0.0560   -0.4050 o         1 MOL     -0.587645
     54 H23        -5.6460    2.2530    0.6050 hn        1 MOL      0.144811
     55 H24        -8.4980    1.8860    0.9650 h1        1 MOL      0.082750
     56 H25        -7.1690    0.8860    1.5660 h1        1 MOL      0.082750
     57 N5         -7.0970   -0.5100   -0.8190 n         1 MOL     -0.091769
     58 C19        -7.3270   -1.7260   -1.5740 c3        1 MOL     -0.068963
     59 C20        -7.1960   -2.9490   -0.6750 c         1 MOL      0.366093
     60 O10        -7.5250   -4.0670   -1.0480 o         1 MOL     -0.550990
     61 C21        -6.4200   -1.9990   -2.7990 c3        1 MOL     -0.136260
     62 C22        -4.9430   -1.6850   -2.4100 c         1 MOL      0.615863
     63 O11        -4.1180   -1.2000   -3.2030 o         1 MOL     -0.674029
     64 O12        -4.5860   -1.9770   -1.2390 o         1 MOL     -0.674029
     65 H26        -6.1360   -0.2590   -0.6340 hn        1 MOL      0.120388
     66 H27        -8.3110   -1.8070   -2.0370 h1        1 MOL      0.116378
     67 H28        -6.7350   -1.4960   -3.7140 hc        1 MOL      0.046833
     68 H29        -6.3840   -3.0690   -3.0190 hc        1 MOL      0.046833
     69 N6         -6.8950   -2.7490    0.6240 n         1 MOL     -0.183932
     70 C23        -6.7220   -3.7770    1.6940 c3        1 MOL     -0.175017
     71 C24        -5.4000   -4.5310    1.6040 c         1 MOL      0.613333
     72 O13        -5.3440   -5.5780    2.2940 o         1 MOL     -0.612371
     73 H30        -6.7080   -1.7870    0.8850 hn        1 MOL      0.210938
     74 H31        -7.5640   -4.4580    1.6910 h1        1 MOL      0.085143
     75 H32        -6.7070   -3.2700    2.6640 h1        1 MOL      0.085143
     76 N7         -4.3810   -4.0520    0.8460 n         1 MOL     -0.327094
     77 C25        -2.9790   -4.5000    0.8220 c3        1 MOL      0.029867
     78 C26        -1.9530   -3.3440    0.9720 c         1 MOL      0.496840
     79 O14        -2.1930   -2.1730    0.7500 o         1 MOL     -0.538456
     80 C27        -2.6980   -5.4100   -0.4120 c3        1 MOL     -0.125992
     81 C28        -2.8760   -4.8320   -1.8330 c3        1 MOL     -0.162894
     82 C29        -1.7300   -3.9080   -2.1920 c         1 MOL      0.579471
     83 N8         -0.5410   -4.3880   -2.5810 n         1 MOL     -0.773447
     84 O15        -1.8880   -2.6790   -2.1100 o         1 MOL     -0.559316
     85 H33        -4.5750   -3.2920    0.1990 hn        1 MOL      0.305780
     86 H34        -2.7320   -5.1160    1.6830 h1        1 MOL      0.035937
     87 H35        -3.5360   -6.0980   -0.2970 hc        1 MOL      0.036582
     88 H36        -1.7240   -5.8920   -0.3580 hc        1 MOL      0.036582
     89 H37        -3.7560   -4.1940   -1.7880 hc        1 MOL      0.090630
     90 H38        -2.9970   -5.6280   -2.5590 hc        1 MOL      0.090630
     91 H39        -0.4020   -5.3800   -2.6480 hn        1 MOL      0.357084
     92 H40         0.0330   -3.7590   -3.1270 hn        1 MOL      0.357084
     93 N9         -0.7500   -3.8080    1.3500 n         1 MOL     -0.386620
     94 C30         0.4580   -2.8960    1.5910 c3        1 MOL      0.026532
     95 C31         1.7240   -3.2180    0.7110 c         1 MOL      0.300718
     96 O16         2.4050   -4.2860    0.9040 o         1 MOL     -0.533598
     97 C32         0.7310   -2.7170    3.0870 c3        1 MOL      0.137295
     98 C33         1.8950   -1.7680    3.3650 c3        1 MOL     -0.164823
     99 C34        -0.5000   -2.1110    3.7140 c3        1 MOL     -0.164823
    100 H41        -0.6760   -4.7360    1.7310 hn        1 MOL      0.287152
    101 H42         0.0980   -1.9220    1.2570 h1        1 MOL      0.113495
    102 H43         0.9290   -3.7010    3.4960 hc        1 MOL     -0.001992
    103 H44         1.7650   -0.7000    3.1630 hc        1 MOL      0.025496
    104 H45         2.1190   -1.7400    4.4320 hc        1 MOL      0.025496
    105 H46         2.7510   -2.1280    2.7880 hc        1 MOL      0.025496
    106 H47        -0.6410   -1.1290    3.2470 hc        1 MOL      0.025496
    107 H48        -1.3910   -2.7260    3.6380 hc        1 MOL      0.025496
    108 H49        -0.3160   -1.9910    4.7840 hc        1 MOL      0.025496
    109 N10         1.9180   -2.4360   -0.3310 n         1 MOL     -0.148379
    110 C35         3.2330   -2.5910   -1.0300 c3        1 MOL      0.038520
    111 C36         4.5130   -2.1590   -0.1750 c         1 MOL      0.321251
    112 O17         4.4730   -1.4990    0.8690 o         1 MOL     -0.277083
    113 C37         3.1490   -1.6420   -2.2290 c3        1 MOL     -0.303136
    114 C38         2.0580   -2.0260   -3.1050 c         1 MOL      0.776906
    115 N11         0.9270   -1.4400   -3.0270 n         1 MOL     -0.798320
    116 O18         2.1410   -2.9680   -3.8900 o         1 MOL     -0.645190
    117 H50         1.3240   -1.6430   -0.5020 hn        1 MOL      0.241599
    118 H51         3.3970   -3.6000   -1.4080 h1        1 MOL      0.091926
    119 H52         3.9960   -1.8010   -2.8970 hc        1 MOL      0.065418
    120 H53         3.0600   -0.5940   -1.9180 hc        1 MOL      0.065418
    121 H54         0.6710   -0.9010   -2.2170 hn        1 MOL      0.386888
    122 H55         0.2380   -1.6460   -3.7480 hn        1 MOL      0.386888
    123 N12         5.7030   -2.5020   -0.7060 n         1 MOL     -0.443682
    124 C39         6.9230   -1.9070   -0.1020 c3        1 MOL      0.192477
    125 C40         6.8400   -0.3320    0.0300 c         1 MOL      0.362542
    126 O19         7.3100    0.3730    0.9740 o         1 MOL     -0.468588
    127 C41         8.0910   -2.2390   -0.9100 c3        1 MOL     -0.026819
    128 C42         9.4410   -1.8650   -0.2930 ca        1 MOL     -0.018567
    129 C43         9.8740   -2.2420    1.0140 ca        1 MOL     -0.168966
    130 C44        10.2440   -0.9230   -0.9570 ca        1 MOL     -0.168966
    131 C45        11.0610   -1.6900    1.5850 ca        1 MOL     -0.227481
    132 C46        11.4070   -0.3720   -0.3920 ca        1 MOL     -0.227481
    133 C47        11.8300   -0.7300    0.9030 ca        1 MOL      0.350695
    134 O20        13.0940   -0.3100    1.3810 oh        1 MOL     -0.545533
    135 H56         5.7970   -3.2210   -1.4010 hn        1 MOL      0.303904
    136 H57         7.1330   -2.2680    0.9060 h1        1 MOL      0.020938
    137 H58         7.9800   -1.8380   -1.9120 hc        1 MOL      0.014697
    138 H59         8.0450   -3.3190   -0.9740 hc        1 MOL      0.014697
    139 H60         9.2610   -2.9200    1.5810 ha        1 MOL      0.149627
    140 H61         9.9820   -0.5840   -1.9410 ha        1 MOL      0.149627
    141 H62        11.3180   -2.0800    2.5600 ha        1 MOL      0.134570
    142 H63        11.9820    0.2120   -1.1010 ha        1 MOL      0.134570
    143 H64        13.4680    0.3990    0.8560 ho        1 MOL      0.378859
    144 N13         6.2600    0.2510   -1.0270 n         1 MOL     -0.191467
    145 C48         6.3260    1.7540   -1.0780 c3        1 MOL     -0.041467
    146 C49         5.4250    2.4480   -0.1100 c         1 MOL      0.354299
    147 O21         5.5140    3.6280    0.2400 o         1 MOL     -0.515619
    148 C50         5.8730    2.1850   -2.4910 c3        1 MOL      0.001073
    149 C51         6.9350    2.1360   -3.6560 c3        1 MOL     -0.319396
    150 C52         6.2680    2.6270   -5.0090 c         1 MOL      0.789878
    151 O22         6.7250    3.6840   -5.3960 o         1 MOL     -0.743136
    152 O23         5.4580    1.9920   -5.7180 o         1 MOL     -0.743136
    153 H65         5.8630   -0.3030   -1.7690 hn        1 MOL      0.239723
    154 H66         7.3220    2.1360   -0.8240 h1        1 MOL      0.116076
    155 H67         5.3710    3.1550   -2.4550 hc        1 MOL      0.044616
    156 H68         5.0380    1.5840   -2.8380 hc        1 MOL      0.044616
    157 H69         7.3650    1.1370   -3.7550 hc        1 MOL      0.028719
    158 H70         7.8210    2.7300   -3.4110 hc        1 MOL      0.028719
    159 N14         4.4260    1.6850    0.3380 n         1 MOL     -0.052492
    160 C53         3.5440    2.1250    1.4730 c3        1 MOL     -0.101311
    161 C54         4.2170    1.8380    2.8760 c         1 MOL      0.488839
    162 O24         4.2940    2.7020    3.7490 o         1 MOL     -0.556303
    163 C55         2.1950    1.3780    1.3960 c3        1 MOL      0.050983
    164 C56         1.4500    1.7880    0.1700 c3        1 MOL      0.024324
    165 C57         0.1670    0.9460   -0.0270 c         1 MOL      0.867083
    166 O25        -0.9360    1.4920    0.2380 o         1 MOL     -0.878682
    167 O26         0.2140   -0.1430   -0.6010 o         1 MOL     -0.878682
    168 H71         4.4420    0.7150    0.0750 hn        1 MOL     -0.010134
    169 H72         3.3910    3.2050    1.3590 h1        1 MOL      0.105424
    170 H73         1.6670    1.5510    2.3320 hc        1 MOL      0.038298
    171 H74         2.3410    0.2960    1.3230 hc        1 MOL      0.038298
    172 H75         2.0370    1.5640   -0.7120 hc        1 MOL     -0.025928
    173 H76         1.1990    2.8590    0.1940 hc        1 MOL     -0.025928
    174 N15         4.6990    0.6000    3.0640 n         1 MOL     -0.087424
    175 C58         5.4620    0.1220    4.2360 c3        1 MOL     -0.154934
    176 H77         6.5300    0.2020    4.0300 h1        1 MOL      0.067128
    177 H78         5.2140    0.7320    5.1050 h1        1 MOL      0.067128
    178 H79         5.2080   -0.9190    4.4370 h1        1 MOL      0.067128
    179 H80         4.5930   -0.0570    2.3050 hn        1 MOL      0.051795
    180 Ca1        -2.4450   -0.2970   -1.1540 Ca        1 MOL      1.762697
    181 O27        -1.2590    0.7830   -3.6200 oh        1 MOL     -0.864790
    182 H81        -0.5510    1.4300   -3.5360 ho        1 MOL      0.411243
    183 H82        -2.0310    1.3070   -3.8550 ho        1 MOL      0.411243
@<TRIPOS>BOND
     1    1    2 1   
     2    1    4 1   
     3    1    5 1   
     4    1    6 1   
     5    2    3 2   
     6    2    7 1   
     7    7    8 1   
     8    7   15 1   
     9    8    9 1   
    10    8   11 1   
    11    8   16 1   
    12    9   10 2   
    13    9   19 1   
    14   11   12 1   
    15   11   17 1   
    16   11   18 1   
    17   12   13 1   
    18   12   14 1   
    19   19   20 1   
    20   19   27 1   
    21   20   21 1   
    22   20   23 1   
    23   20   28 1   
    24   21   22 2   
    25   21   38 1   
    26   23   24 1   
    27   23   25 1   
    28   23   29 1   
    29   24   26 1   
    30   24   30 1   
    31   24   31 1   
    32   25   32 1   
    33   25   33 1   
    34   25   34 1   
    35   26   35 1   
    36   26   36 1   
    37   26   37 1   
    38   38   39 1   
    39   38   46 1   
    40   39   40 1   
    41   39   42 1   
    42   39   47 1   
    43   40   41 2   
    44   40   50 1   
    45   42   43 1   
    46   42   48 1   
    47   42   49 1   
    48   43   44 1   
    49   43   45 1   
    50   50   51 1   
    51   50   54 1   
    52   51   52 1   
    53   51   55 1   
    54   51   56 1   
    55   52   53 2   
    56   52   57 1   
    57   57   58 1   
    58   57   65 1   
    59   58   59 1   
    60   58   61 1   
    61   58   66 1   
    62   59   60 2   
    63   59   69 1   
    64   61   62 1   
    65   61   67 1   
    66   61   68 1   
    67   62   63 1   
    68   62   64 1   
    69   69   70 1   
    70   69   73 1   
    71   70   71 1   
    72   70   74 1   
    73   70   75 1   
    74   71   72 2   
    75   71   76 1   
    76   76   77 1   
    77   76   85 1   
    78   77   78 1   
    79   77   80 1   
    80   77   86 1   
    81   78   79 2   
    82   78   93 1   
    83   80   81 1   
    84   80   87 1   
    85   80   88 1   
    86   81   82 1   
    87   81   89 1   
    88   81   90 1   
    89   82   83 1   
    90   82   84 2   
    91   83   91 1   
    92   83   92 1   
    93   93   94 1   
    94   93  100 1   
    95   94   95 1   
    96   94   97 1   
    97   94  101 1   
    98   95   96 2   
    99   95  109 1   
   100   97   98 1   
   101   97   99 1   
   102   97  102 1   
   103   98  103 1   
   104   98  104 1   
   105   98  105 1   
   106   99  106 1   
   107   99  107 1   
   108   99  108 1   
   109  109  110 1   
   110  109  117 1   
   111  110  111 1   
   112  110  113 1   
   113  110  118 1   
   114  111  112 2   
   115  111  123 1   
   116  113  114 1   
   117  113  119 1   
   118  113  120 1   
   119  114  115 1   
   120  114  116 2   
   121  115  121 1   
   122  115  122 1   
   123  123  124 1   
   124  123  135 1   
   125  124  125 1   
   126  124  127 1   
   127  124  136 1   
   128  125  126 2   
   129  125  144 1   
   130  127  128 1   
   131  127  137 1   
   132  127  138 1   
   133  128  129 ar  
   134  128  130 ar  
   135  129  131 ar  
   136  129  139 1   
   137  130  132 ar  
   138  130  140 1   
   139  131  133 ar  
   140  131  141 1   
   141  132  133 ar  
   142  132  142 1   
   143  133  134 1   
   144  134  143 1   
   145  144  145 1   
   146  144  153 1   
   147  145  146 1   
   148  145  148 1   
   149  145  154 1   
   150  146  147 2   
   151  146  159 1   
   152  148  149 1   
   153  148  155 1   
   154  148  156 1   
   155  149  150 1   
   156  149  157 1   
   157  149  158 1   
   158  150  151 1   
   159  150  152 1   
   160  159  160 1   
   161  159  168 1   
   162  160  161 1   
   163  160  163 1   
   164  160  169 1   
   165  161  162 2   
   166  161  174 1   
   167  163  164 1   
   168  163  170 1   
   169  163  171 1   
   170  164  165 1   
   171  164  172 1   
   172  164  173 1   
   173  165  166 1   
   174  165  167 1   
   175  174  175 1   
   176  174  179 1   
   177  175  176 1   
   178  175  177 1   
   179  175  178 1   
   180  181  182 1   
   181  181  183 1   
@<TRIPOS>SUBSTRUCTURE
     1 MOL         1 TEMP              0 ****  ****    0 ROOT
