@<TRIPOS>MOLECULE
MOL
  172   171     1     0     0
SMALL
resp


@<TRIPOS>ATOM
      1 C1         -0.3710   -3.0810    5.9600 c3        1 MOL     -0.345755
      2 C2          0.1400   -3.3260    4.5330 c         1 MOL      0.625793
      3 O1         -0.5940   -3.8230    3.6810 o         1 MOL     -0.524690
      4 H1          0.4740   -3.0640    6.6490 hc        1 MOL      0.086903
      5 H2         -0.8920   -2.1250    6.0010 hc        1 MOL      0.086903
      6 H3         -1.0550   -3.8810    6.2430 hc        1 MOL      0.086903
      7 N1          1.3170   -2.8460    4.1730 n         1 MOL     -0.476230
      8 C3          1.8940   -2.8350    2.8580 c3        1 MOL      0.244019
      9 C4          2.0040   -4.2450    2.2800 c         1 MOL      0.341985
     10 O2          1.9520   -5.3010    2.9690 o         1 MOL     -0.534628
     11 C5          3.3160   -2.2800    2.9440 c3        1 MOL     -0.245477
     12 C6          4.1720   -2.4790    1.6780 c         1 MOL      0.642317
     13 O3          5.0310   -3.3810    1.6650 o         1 MOL     -0.610784
     14 O4          3.7990   -1.9230    0.6040 o         1 MOL     -0.610784
     15 H4          1.9010   -2.4480    4.8960 hn        1 MOL      0.278601
     16 H5          1.3360   -2.2080    2.1610 h1        1 MOL     -0.062690
     17 H6          3.8530   -2.7530    3.7650 hc        1 MOL      0.022342
     18 H7          3.2930   -1.2560    3.3070 hc        1 MOL      0.022342
     19 N2          2.1240   -4.3430    0.9590 n         1 MOL     -0.128484
     20 C7          2.1800   -5.5430    0.1410 c3        1 MOL      0.220725
     21 C8          2.9630   -5.2180   -1.1620 c         1 MOL      0.410796
     22 O5          2.9290   -5.9010   -2.1890 o         1 MOL     -0.552633
     23 C9          0.7500   -6.0140   -0.1180 c3        1 MOL     -0.269959
     24 H8          2.4170   -3.4730    0.5440 hn        1 MOL      0.217333
     25 H9          2.7380   -6.3080    0.6670 h1        1 MOL      0.011581
     26 H10         0.1920   -5.1660   -0.5120 hc        1 MOL      0.065625
     27 H11         0.7420   -6.8030   -0.8760 hc        1 MOL      0.065625
     28 H12         0.2910   -6.4030    0.7930 hc        1 MOL      0.065625
     29 N3          3.8070   -4.1550   -1.2210 n         1 MOL     -0.133337
     30 C10         4.6920   -3.7990   -2.3740 c3        1 MOL     -0.090813
     31 C11         6.0080   -3.0130   -2.1290 c         1 MOL      0.524400
     32 O6          6.7910   -2.9250   -3.0410 o         1 MOL     -0.555100
     33 C12         3.7500   -2.9720   -3.2760 c3        1 MOL     -0.011953
     34 C13         3.1350   -1.7570   -2.6240 c         1 MOL      0.621531
     35 O7          1.9280   -1.5970   -2.5790 o         1 MOL     -0.668766
     36 O8          3.8450   -0.8940   -2.0810 o         1 MOL     -0.668766
     37 H13         3.8950   -3.5810   -0.3900 hn        1 MOL     -0.044610
     38 H14         4.9840   -4.6960   -2.9310 h1        1 MOL      0.087785
     39 H15         2.9650   -3.6470   -3.6200 hc        1 MOL      0.014887
     40 H16         4.2540   -2.5910   -4.1650 hc        1 MOL      0.014887
     41 N4          6.1470   -2.3930   -0.9330 n         1 MOL     -0.296836
     42 C14         7.4650   -1.7960   -0.5680 c3        1 MOL     -0.092566
     43 C15         7.5770   -0.3140   -0.9200 c         1 MOL      0.491446
     44 O9          8.6310    0.2560   -0.5640 o         1 MOL     -0.605449
     45 H17         5.4170   -2.3740   -0.2420 hn        1 MOL      0.246893
     46 H18         8.2710   -2.2960   -1.1060 h1        1 MOL      0.082309
     47 H19         7.7830   -1.8870    0.4690 h1        1 MOL      0.082309
     48 N5          6.4710    0.3060   -1.4090 n         1 MOL     -0.188643
     49 C16         6.5930    1.7220   -2.0060 c3        1 MOL     -0.017288
     50 C17         6.7420    2.8190   -0.9480 c         1 MOL      0.436390
     51 O10         7.1740    3.9400   -1.3070 o         1 MOL     -0.543717
     52 C18         5.4060    1.8140   -2.9850 c3        1 MOL     -0.148548
     53 C19         3.9800    2.0470   -2.3930 c         1 MOL      0.709711
     54 N6          3.0140    2.1550   -3.2540 n         1 MOL     -0.662219
     55 O11         3.7120    1.9880   -1.2290 o         1 MOL     -0.720855
     56 H20         5.6550   -0.2510   -1.6010 hn        1 MOL      0.094679
     57 H21         7.5230    1.6650   -2.5620 h1        1 MOL      0.098622
     58 H22         5.4190    0.9030   -3.5770 hc        1 MOL      0.057285
     59 H23         5.4950    2.5870   -3.7350 hc        1 MOL      0.057285
     60 H24         3.3170    1.9740   -4.1980 hn        1 MOL      0.316977
     61 H25         2.0760    1.9440   -2.9640 hn        1 MOL      0.316977
     62 N7          6.4800    2.5320    0.3300 n         1 MOL     -0.194764
     63 C20         6.5450    3.4970    1.3960 c3        1 MOL     -0.275390
     64 C21         5.1730    4.2580    1.5930 c         1 MOL      0.505034
     65 O12         5.1980    5.1960    2.3860 o         1 MOL     -0.561399
     66 H26         6.2200    1.5800    0.5560 hn        1 MOL      0.258978
     67 H27         7.2580    4.2730    1.1100 h1        1 MOL      0.132885
     68 H28         6.8470    2.9770    2.3030 h1        1 MOL      0.132885
     69 N8          4.0640    3.7970    0.9220 n         1 MOL     -0.086804
     70 C22         2.7240    4.4660    0.9280 c3        1 MOL     -0.408516
     71 C23         1.5020    3.6060    1.2100 c         1 MOL      0.725405
     72 O13         1.5460    2.4240    0.9160 o         1 MOL     -0.597080
     73 C24         2.3950    5.3000   -0.3550 c3        1 MOL      0.583602
     74 C25         3.4090    6.3970   -0.6030 c3        1 MOL     -0.349336
     75 O14         2.3180    4.5940   -1.5410 oh        1 MOL     -0.663323
     76 H29         4.1380    2.9820    0.3400 hn        1 MOL      0.260962
     77 H30         2.8240    5.2200    1.7170 h1        1 MOL      0.091298
     78 H31         1.4250    5.7870   -0.2200 h1        1 MOL     -0.057661
     79 H32         1.7000    3.8570   -1.5330 ho        1 MOL      0.418149
     80 H33         3.0980    6.9060   -1.5100 hc        1 MOL      0.083474
     81 H34         3.3520    7.1910    0.1370 hc        1 MOL      0.083474
     82 H35         4.4290    6.0310   -0.7730 hc        1 MOL      0.083474
     83 N9          0.3730    4.0360    1.7130 n         1 MOL     -0.556391
     84 C26        -0.9100    3.2650    1.7500 c3        1 MOL     -0.154635
     85 C27        -1.4960    3.2710    0.3090 c         1 MOL      0.570436
     86 O15        -1.7730    4.3910   -0.2130 o         1 MOL     -0.588828
     87 C28        -1.9000    3.7920    2.8240 c3        1 MOL      0.482731
     88 C29        -1.3450    4.0960    4.1950 c3        1 MOL     -0.002647
     89 C30        -3.1650    2.9250    2.8360 c3        1 MOL     -0.491532
     90 C31        -2.1460    5.0400    5.1230 c3        1 MOL     -0.034391
     91 H36         0.3710    4.9620    2.1320 hn        1 MOL      0.306661
     92 H37        -0.7750    2.1980    1.9350 h1        1 MOL      0.094295
     93 H38        -2.2320    4.7300    2.3910 hc        1 MOL     -0.098581
     94 H39        -0.3350    4.4790    4.1170 hc        1 MOL     -0.022229
     95 H40        -1.3400    3.1000    4.6460 hc        1 MOL     -0.022229
     96 H41        -3.6810    2.9930    1.8810 hc        1 MOL      0.109565
     97 H42        -2.8040    1.9050    2.9980 hc        1 MOL      0.109565
     98 H43        -3.9100    3.2090    3.5820 hc        1 MOL      0.109565
     99 H44        -3.2140    4.8180    5.0970 hc        1 MOL      0.000737
    100 H45        -1.8050    4.9220    6.1530 hc        1 MOL      0.000737
    101 H46        -1.9500    6.0680    4.8140 hc        1 MOL      0.000737
    102 N10        -1.6880    2.1170   -0.2980 n         1 MOL     -0.410212
    103 C32        -2.5150    1.8660   -1.5340 c3        1 MOL      0.188566
    104 C33        -4.0150    1.3620   -1.1710 c         1 MOL      0.523900
    105 O16        -4.1740    0.8380   -0.0830 o         1 MOL     -0.455154
    106 C34        -1.7870    0.9640   -2.4440 c3        1 MOL     -0.177232
    107 C35        -0.2960    1.1790   -2.7780 c         1 MOL      0.683357
    108 O17         0.0300    1.4880   -3.9520 o         1 MOL     -0.654955
    109 O18         0.5750    1.0460   -1.8920 o         1 MOL     -0.654955
    110 H47        -1.3710    1.3160    0.2250 hn        1 MOL      0.255572
    111 H48        -2.7290    2.7740   -2.0920 h1        1 MOL      0.019132
    112 H49        -2.3170    1.0600   -3.3930 hc        1 MOL      0.026352
    113 H50        -1.8550   -0.0580   -2.0850 hc        1 MOL      0.026352
    114 N11        -5.0440    1.3480   -2.0780 n         1 MOL     -0.737818
    115 C36        -6.4490    1.0830   -1.7540 c3        1 MOL      0.420417
    116 C37        -6.7400   -0.3280   -1.2500 c         1 MOL      0.209165
    117 O19        -7.5690   -0.5060   -0.3110 o         1 MOL     -0.484268
    118 C38        -7.3650    1.3810   -2.9180 c3        1 MOL     -0.310833
    119 C39        -8.8310    1.3820   -2.4390 ca        1 MOL      0.250914
    120 C40        -9.7010    0.3320   -2.9260 ca        1 MOL     -0.298385
    121 C41        -9.3800    2.4300   -1.7070 ca        1 MOL     -0.298385
    122 C42       -11.0350    0.2660   -2.3760 ca        1 MOL     -0.010912
    123 C43       -10.6300    2.2720   -1.0900 ca        1 MOL     -0.010912
    124 C44       -11.5130    1.2060   -1.4740 ca        1 MOL     -0.197474
    125 H51        -4.7420    1.6980   -2.9770 hn        1 MOL      0.359263
    126 H52        -6.7370    1.7990   -0.9940 h1        1 MOL      0.065343
    127 H53        -7.1570    0.6730   -3.7250 hc        1 MOL      0.085427
    128 H54        -7.2130    2.3620   -3.3580 hc        1 MOL      0.085427
    129 H55        -9.3760   -0.4310   -3.6170 ha        1 MOL      0.148752
    130 H56        -8.7340    3.2220   -1.3650 ha        1 MOL      0.148752
    131 H57       -11.7560   -0.4600   -2.7480 ha        1 MOL      0.088735
    132 H58       -11.0160    2.9840   -0.3750 ha        1 MOL      0.088735
    133 H59       -12.5400    1.1020   -1.1460 ha        1 MOL      0.120759
    134 N12        -5.9860   -1.3700   -1.6500 n         1 MOL      0.058747
    135 C45        -6.1620   -2.6700   -0.9790 c3        1 MOL      0.061498
    136 C46        -5.5750   -2.7500    0.4120 c         1 MOL      0.275347
    137 O20        -5.9360   -3.6240    1.1660 o         1 MOL     -0.523023
    138 C47        -5.5310   -3.6420   -1.9730 c3        1 MOL     -0.082293
    139 C48        -5.5790   -2.9050   -3.2960 c3        1 MOL      0.069352
    140 C49        -5.1410   -1.4870   -2.7920 c3        1 MOL     -0.225771
    141 H60        -7.2160   -2.9080   -0.8050 h1        1 MOL      0.070416
    142 H61        -4.4990   -3.9290   -1.7470 hc        1 MOL      0.042102
    143 H62        -6.2240   -4.4830   -2.0050 hc        1 MOL      0.042102
    144 H63        -4.9900   -3.4170   -4.0530 hc        1 MOL      0.001662
    145 H64        -6.6110   -2.8530   -3.6520 hc        1 MOL      0.001662
    146 H65        -4.0930   -1.4250   -2.5060 h1        1 MOL      0.101605
    147 H66        -5.3180   -0.7290   -3.5590 h1        1 MOL      0.101605
    148 N13        -4.6410   -1.8960    0.7520 n         1 MOL      0.059524
    149 C50        -4.0630   -1.8080    2.0930 c3        1 MOL     -0.297878
    150 C51        -4.9780   -0.9930    2.9730 c         1 MOL      0.560920
    151 O21        -4.9770   -1.1990    4.1650 o         1 MOL     -0.566997
    152 C52        -2.5990   -1.3060    2.0120 c3        1 MOL      0.121648
    153 C53        -1.8440   -1.8860    0.7690 c3        1 MOL     -0.166556
    154 C54        -0.4320   -1.2890    0.6270 c         1 MOL      0.803826
    155 O22         0.3050   -1.9710   -0.0430 o         1 MOL     -0.774043
    156 O23        -0.1240   -0.1660    1.0360 o         1 MOL     -0.774043
    157 H67        -4.3250   -1.2560    0.0380 hn        1 MOL      0.023483
    158 H68        -4.1650   -2.8300    2.4270 h1        1 MOL      0.147064
    159 H69        -2.1200   -1.7330    2.8890 hc        1 MOL     -0.000049
    160 H70        -2.5170   -0.2180    2.0580 hc        1 MOL     -0.000049
    161 H71        -2.3170   -1.7890   -0.2110 hc        1 MOL      0.084046
    162 H72        -1.8460   -2.9600    0.9770 hc        1 MOL      0.084046
    163 N14        -5.8140   -0.1260    2.3850 n         1 MOL     -0.135020
    164 C55        -6.7990    0.6430    3.1080 c3        1 MOL     -0.182430
    165 H73        -6.4180    0.8760    4.1030 h1        1 MOL      0.071250
    166 H74        -7.0030    1.5690    2.5720 h1        1 MOL      0.071250
    167 H75        -7.7190    0.0640    3.1990 h1        1 MOL      0.071250
    168 H76        -5.8170   -0.0680    1.3810 hn        1 MOL      0.134738
    169 Ca1         2.1780    0.0400   -0.2920 Ca        1 MOL      1.738005
    170 O24         4.0670    1.0270    2.0040 oh        1 MOL     -0.996922
    171 H77         3.2910    1.0180    2.5770 ho        1 MOL      0.458689
    172 H78         4.7450    0.5910    2.5190 ho        1 MOL      0.458689
@<TRIPOS>BOND
     1    1    2 1   
     2    1    4 1   
     3    1    5 1   
     4    1    6 1   
     5    2    3 2   
     6    2    7 1   
     7    7    8 1   
     8    7   15 1   
     9    8    9 1   
    10    8   11 1   
    11    8   16 1   
    12    9   10 2   
    13    9   19 1   
    14   11   12 1   
    15   11   17 1   
    16   11   18 1   
    17   12   13 1   
    18   12   14 1   
    19   19   20 1   
    20   19   24 1   
    21   20   21 1   
    22   20   23 1   
    23   20   25 1   
    24   21   22 2   
    25   21   29 1   
    26   23   26 1   
    27   23   27 1   
    28   23   28 1   
    29   29   30 1   
    30   29   37 1   
    31   30   31 1   
    32   30   33 1   
    33   30   38 1   
    34   31   32 2   
    35   31   41 1   
    36   33   34 1   
    37   33   39 1   
    38   33   40 1   
    39   34   35 1   
    40   34   36 1   
    41   41   42 1   
    42   41   45 1   
    43   42   43 1   
    44   42   46 1   
    45   42   47 1   
    46   43   44 2   
    47   43   48 1   
    48   48   49 1   
    49   48   56 1   
    50   49   50 1   
    51   49   52 1   
    52   49   57 1   
    53   50   51 2   
    54   50   62 1   
    55   52   53 1   
    56   52   58 1   
    57   52   59 1   
    58   53   54 1   
    59   53   55 2   
    60   54   60 1   
    61   54   61 1   
    62   62   63 1   
    63   62   66 1   
    64   63   64 1   
    65   63   67 1   
    66   63   68 1   
    67   64   65 2   
    68   64   69 1   
    69   69   70 1   
    70   69   76 1   
    71   70   71 1   
    72   70   73 1   
    73   70   77 1   
    74   71   72 2   
    75   71   83 1   
    76   73   74 1   
    77   73   75 1   
    78   73   78 1   
    79   74   80 1   
    80   74   81 1   
    81   74   82 1   
    82   75   79 1   
    83   83   84 1   
    84   83   91 1   
    85   84   85 1   
    86   84   87 1   
    87   84   92 1   
    88   85   86 2   
    89   85  102 1   
    90   87   88 1   
    91   87   89 1   
    92   87   93 1   
    93   88   90 1   
    94   88   94 1   
    95   88   95 1   
    96   89   96 1   
    97   89   97 1   
    98   89   98 1   
    99   90   99 1   
   100   90  100 1   
   101   90  101 1   
   102  102  103 1   
   103  102  110 1   
   104  103  104 1   
   105  103  106 1   
   106  103  111 1   
   107  104  105 2   
   108  104  114 1   
   109  106  107 1   
   110  106  112 1   
   111  106  113 1   
   112  107  108 1   
   113  107  109 1   
   114  114  115 1   
   115  114  125 1   
   116  115  116 1   
   117  115  118 1   
   118  115  126 1   
   119  116  117 2   
   120  116  134 1   
   121  118  119 1   
   122  118  127 1   
   123  118  128 1   
   124  119  120 ar  
   125  119  121 ar  
   126  120  122 ar  
   127  120  129 1   
   128  121  123 ar  
   129  121  130 1   
   130  122  124 ar  
   131  122  131 1   
   132  123  124 ar  
   133  123  132 1   
   134  124  133 1   
   135  134  135 1   
   136  134  140 1   
   137  135  136 1   
   138  135  138 1   
   139  135  141 1   
   140  136  137 2   
   141  136  148 1   
   142  138  139 1   
   143  138  142 1   
   144  138  143 1   
   145  139  140 1   
   146  139  144 1   
   147  139  145 1   
   148  140  146 1   
   149  140  147 1   
   150  148  149 1   
   151  148  157 1   
   152  149  150 1   
   153  149  152 1   
   154  149  158 1   
   155  150  151 2   
   156  150  163 1   
   157  152  153 1   
   158  152  159 1   
   159  152  160 1   
   160  153  154 1   
   161  153  161 1   
   162  153  162 1   
   163  154  155 1   
   164  154  156 1   
   165  163  164 1   
   166  163  168 1   
   167  164  165 1   
   168  164  166 1   
   169  164  167 1   
   170  170  171 1   
   171  170  172 1   
@<TRIPOS>SUBSTRUCTURE
     1 MOL         1 TEMP              0 ****  ****    0 ROOT
