@<TRIPOS>MOLECULE
MOL
  186   183     1     0     0
SMALL
resp


@<TRIPOS>ATOM
      1 C1          0.0080   -1.6130    6.2040 c3        1 MOL     -0.347872
      2 C2          0.4010   -1.7800    4.7260 c         1 MOL      0.763352
      3 O1         -0.2120   -2.5180    3.9430 o         1 MOL     -0.628700
      4 H1         -1.0310   -1.2890    6.2680 hc        1 MOL      0.080652
      5 H2          0.1250   -2.5650    6.7210 hc        1 MOL      0.080652
      6 H3          0.6500   -0.8650    6.6690 hc        1 MOL      0.080652
      7 N1          1.4900   -1.2200    4.3350 n         1 MOL     -0.542202
      8 C3          2.1740   -1.4000    3.0610 c3        1 MOL      0.323862
      9 C4          2.6330   -2.8480    2.8740 c         1 MOL      0.267173
     10 O2          3.4380   -3.4180    3.6060 o         1 MOL     -0.553434
     11 C5          3.3820   -0.4510    3.1430 c3        1 MOL     -0.268928
     12 C6          4.1660   -0.2250    1.8870 c         1 MOL      0.902331
     13 O3          3.9430   -1.0250    0.9430 o         1 MOL     -0.704264
     14 O4          5.0780    0.5470    1.8700 o         1 MOL     -0.704264
     15 H4          1.8900   -0.5920    5.0230 hn        1 MOL      0.274280
     16 H5          1.6430   -1.0010    2.1920 h1        1 MOL     -0.080437
     17 H6          4.0840   -0.6810    3.9430 hc        1 MOL      0.030978
     18 H7          3.0630    0.5560    3.4130 hc        1 MOL      0.030978
     19 N2          2.1990   -3.4640    1.7700 n         1 MOL      0.172175
     20 C7          2.5990   -4.7960    1.4180 c3        1 MOL     -0.074865
     21 C8          3.9450   -4.8430    0.5870 c         1 MOL      0.439499
     22 O5          4.6690   -5.7880    0.8270 o         1 MOL     -0.573077
     23 C9          1.4140   -5.5840    0.7970 c3        1 MOL      0.054785
     24 C10         0.9360   -5.1820   -0.6020 c3        1 MOL     -0.014933
     25 C11         0.2430   -5.6450    1.8520 c3        1 MOL     -0.348353
     26 C12        -0.3700   -5.7140   -1.1670 c3        1 MOL     -0.351042
     27 H8          1.5560   -2.9440    1.1940 hn        1 MOL      0.067557
     28 H9          2.8770   -5.4050    2.2760 h1        1 MOL      0.076351
     29 H10         1.7180   -6.6290    0.7140 hc        1 MOL     -0.001336
     30 H11         1.6510   -5.5450   -1.3370 hc        1 MOL      0.053700
     31 H12         1.0550   -4.1170   -0.8110 hc        1 MOL      0.053700
     32 H13         0.5370   -6.0140    2.8320 hc        1 MOL      0.092985
     33 H14         0.1300   -4.5830    2.0540 hc        1 MOL      0.092985
     34 H15        -0.6650   -6.1130    1.4690 hc        1 MOL      0.092985
     35 H16        -1.1770   -5.3000   -0.5510 hc        1 MOL      0.099084
     36 H17        -0.3590   -5.5000   -2.2360 hc        1 MOL      0.099084
     37 H18        -0.4060   -6.7920   -0.9910 hc        1 MOL      0.099084
     38 N3          4.2020   -3.9220   -0.3130 n         1 MOL     -0.337596
     39 C13         5.4100   -4.0230   -1.2150 c3        1 MOL      0.225453
     40 C14         6.6010   -3.2090   -0.6780 c         1 MOL      0.326784
     41 O6          7.7510   -3.4430   -1.1240 o         1 MOL     -0.574350
     42 C15         5.2100   -3.7140   -2.6860 c3        1 MOL     -0.387433
     43 C16         4.5990   -2.3320   -2.9560 c         1 MOL      0.904525
     44 O7          4.4990   -1.9970   -4.1490 o         1 MOL     -0.723144
     45 O8          4.3440   -1.5960   -1.9800 o         1 MOL     -0.723144
     46 H19         3.5150   -3.2060   -0.4420 hn        1 MOL      0.117505
     47 H20         5.7280   -5.0690   -1.2200 h1        1 MOL      0.062632
     48 H21         4.5830   -4.4750   -3.1700 hc        1 MOL      0.072234
     49 H22         6.2430   -3.6380   -3.0300 hc        1 MOL      0.072234
     50 N4          6.4450   -2.2220    0.1920 n         1 MOL      0.009699
     51 C17         7.4790   -1.4100    0.7740 c3        1 MOL     -0.367004
     52 C18         7.8110   -0.1230    0.0290 c         1 MOL      0.678962
     53 O9          8.8930    0.3790    0.2510 o         1 MOL     -0.637126
     54 H23         5.4780   -1.9330    0.2460 hn        1 MOL      0.053998
     55 H24         8.4000   -1.9830    0.8390 h1        1 MOL      0.141074
     56 H25         7.1670   -1.0850    1.7670 h1        1 MOL      0.141074
     57 N5          7.0610    0.3270   -1.0150 n         1 MOL     -0.366165
     58 C19         7.3420    1.5550   -1.8410 c3        1 MOL      0.057717
     59 C20         7.2600    2.8170   -0.8390 c         1 MOL      0.400093
     60 O10         7.4940    3.9640   -1.2170 o         1 MOL     -0.567707
     61 C21         6.4150    1.6910   -3.0610 c3        1 MOL     -0.212123
     62 C22         4.9350    1.6190   -2.7450 c         1 MOL      0.886006
     63 O11         4.5160    1.4700   -1.5840 o         1 MOL     -0.784269
     64 O12         4.1010    1.6540   -3.6580 o         1 MOL     -0.784269
     65 H26         6.1910   -0.1580   -1.1300 hn        1 MOL      0.234053
     66 H27         8.3740    1.5510   -2.2000 h1        1 MOL      0.068066
     67 H28         6.6940    0.8490   -3.6950 hc        1 MOL      0.059632
     68 H29         6.6490    2.6450   -3.5400 hc        1 MOL      0.059632
     69 N6          6.7710    2.5790    0.3780 n         1 MOL     -0.054479
     70 C23         6.6780    3.5360    1.4870 c3        1 MOL     -0.277631
     71 C24         5.3640    4.2490    1.5040 c         1 MOL      0.661479
     72 O13         5.3150    5.4320    1.7670 o         1 MOL     -0.585241
     73 H30         6.3610    1.6620    0.4890 hn        1 MOL      0.186487
     74 H31         7.4530    4.3030    1.3870 h1        1 MOL      0.105137
     75 H32         6.7870    3.0230    2.4410 h1        1 MOL      0.105137
     76 N7          4.2840    3.5360    1.0810 n         1 MOL     -0.466062
     77 C25         2.9300    4.0530    0.8720 c3        1 MOL      0.303745
     78 C26         1.7490    3.0060    0.9570 c         1 MOL      0.350869
     79 O14         1.9740    1.8580    0.6730 o         1 MOL     -0.530692
     80 C27         2.7870    4.8440   -0.4490 c3        1 MOL     -0.039634
     81 C28         3.6020    6.1820   -0.7090 c3        1 MOL     -0.371899
     82 C29         2.7830    6.9040   -1.6960 c         1 MOL      0.725593
     83 N8          2.7320    6.6190   -2.9830 n         1 MOL     -0.841316
     84 O15         2.0740    7.8250   -1.3430 o         1 MOL     -0.596085
     85 H33         4.3570    2.5590    0.8360 hn        1 MOL      0.169131
     86 H34         2.8380    4.7700    1.6950 h1        1 MOL     -0.036350
     87 H35         1.7200    5.0780   -0.4220 hc        1 MOL      0.014383
     88 H36         3.0300    4.1140   -1.2240 hc        1 MOL      0.014383
     89 H37         4.6020    5.9760   -1.0900 hc        1 MOL      0.144439
     90 H38         3.4940    6.7010    0.2500 hc        1 MOL      0.144439
     91 H39         3.2430    5.7750   -3.2170 hn        1 MOL      0.371630
     92 H40         1.9090    6.9030   -3.4790 hn        1 MOL      0.371630
     93 N9          0.6040    3.5060    1.4070 n         1 MOL     -0.287705
     94 C30        -0.5880    2.7130    1.6650 c3        1 MOL      0.015278
     95 C31        -1.6250    3.2040    0.6790 c         1 MOL      0.371052
     96 O16        -2.1980    4.3040    0.8030 o         1 MOL     -0.532709
     97 C32        -1.1040    2.8730    3.1370 c3        1 MOL      0.134961
     98 C33        -2.5240    2.3200    3.4330 c3        1 MOL     -0.104560
     99 C34        -0.1700    2.2100    4.1120 c3        1 MOL     -0.104560
    100 H41         0.6600    4.4580    1.7390 hn        1 MOL      0.253641
    101 H42        -0.3230    1.6760    1.4670 h1        1 MOL      0.167538
    102 H43        -1.0840    3.9170    3.4490 hc        1 MOL     -0.010934
    103 H44        -2.4200    1.2420    3.5670 hc        1 MOL      0.010180
    104 H45        -2.8740    2.7890    4.3570 hc        1 MOL      0.010180
    105 H46        -3.1790    2.6620    2.6290 hc        1 MOL      0.010180
    106 H47        -0.5700    2.3060    5.1170 hc        1 MOL      0.010180
    107 H48        -0.0910    1.1310    3.9430 hc        1 MOL      0.010180
    108 H49         0.8170    2.6660    4.1110 hc        1 MOL      0.010180
    109 N10        -1.8480    2.4370   -0.4140 n         1 MOL     -0.297196
    110 C35        -3.0180    2.5700   -1.3080 c3        1 MOL      0.175029
    111 C36        -4.3200    2.0720   -0.5930 c         1 MOL      0.313455
    112 O17        -4.2560    1.4950    0.5040 o         1 MOL     -0.265352
    113 C37        -2.6480    1.9790   -2.7120 c3        1 MOL     -0.305368
    114 C38        -3.1110    0.5590   -2.8370 c         1 MOL      0.610779
    115 N11        -2.3100   -0.4720   -2.7300 n         1 MOL     -0.794574
    116 O18        -4.3020    0.2670   -3.1240 o         1 MOL     -0.584974
    117 H50        -1.2290    1.6490   -0.5340 hn        1 MOL      0.193745
    118 H51        -3.1590    3.6290   -1.5260 h1        1 MOL      0.055477
    119 H52        -1.5550    1.9900   -2.7870 hc        1 MOL      0.105843
    120 H53        -3.0580    2.5840   -3.5240 hc        1 MOL      0.105843
    121 H54        -1.3470   -0.3820   -2.4430 hn        1 MOL      0.407171
    122 H55        -2.6490   -1.4000   -2.9510 hn        1 MOL      0.407171
    123 N12        -5.5060    2.2310   -1.2010 n         1 MOL     -0.531401
    124 C39        -6.7750    1.7900   -0.5990 c3        1 MOL      0.273044
    125 C40        -6.9340    0.2360   -0.4130 c         1 MOL      0.572617
    126 O19        -7.5150   -0.2110    0.5420 o         1 MOL     -0.535050
    127 C41        -7.9910    2.3180   -1.3760 c3        1 MOL     -0.171500
    128 C42        -9.3540    2.2950   -0.7440 ca        1 MOL     -0.064055
    129 C43        -9.7360    3.3110    0.1620 ca        1 MOL     -0.085626
    130 C44       -10.1960    1.2580   -1.0980 ca        1 MOL     -0.085626
    131 C45       -11.0210    3.1750    0.7130 ca        1 MOL     -0.245728
    132 C46       -11.4840    1.2240   -0.6440 ca        1 MOL     -0.245728
    133 C47       -11.8870    2.1310    0.3490 ca        1 MOL      0.341211
    134 O20       -13.1840    2.1960    0.8070 oh        1 MOL     -0.545600
    135 H56        -5.5040    2.6280   -2.1250 hn        1 MOL      0.289000
    136 H57        -6.8360    2.1360    0.4280 h1        1 MOL      0.022083
    137 H58        -7.9240    1.7140   -2.2760 hc        1 MOL      0.062170
    138 H59        -7.7260    3.3460   -1.6490 hc        1 MOL      0.062170
    139 H60        -9.1610    4.2220    0.2440 ha        1 MOL      0.127923
    140 H61        -9.8690    0.4580   -1.7410 ha        1 MOL      0.127923
    141 H62       -11.3370    3.9820    1.3480 ha        1 MOL      0.128245
    142 H63       -12.1850    0.6180   -1.1950 ha        1 MOL      0.128245
    143 H64       -13.7020    1.4230    0.5920 ho        1 MOL      0.386881
    144 N13        -6.2850   -0.5780   -1.3350 n         1 MOL     -0.521830
    145 C48        -6.1870   -2.0520   -1.1850 c3        1 MOL      0.136326
    146 C49        -5.2610   -2.4880   -0.0050 c         1 MOL      0.172052
    147 O21        -5.5390   -3.4850    0.6360 o         1 MOL     -0.494418
    148 C50        -5.7410   -2.7540   -2.4860 c3        1 MOL     -0.066742
    149 C51        -5.9190   -4.2960   -2.4990 c3        1 MOL     -0.345439
    150 C52        -5.4250   -4.9590   -3.7720 c         1 MOL      0.810664
    151 O22        -6.1680   -5.2580   -4.6910 o         1 MOL     -0.771951
    152 O23        -4.2350   -5.3610   -3.7950 o         1 MOL     -0.771951
    153 H65        -5.7930   -0.1140   -2.0870 hn        1 MOL      0.264976
    154 H66        -7.1980   -2.4360   -0.9830 h1        1 MOL      0.075011
    155 H67        -4.7090   -2.4780   -2.6610 hc        1 MOL      0.031072
    156 H68        -6.3650   -2.2590   -3.2310 hc        1 MOL      0.031072
    157 H69        -6.9560   -4.5700   -2.3150 hc        1 MOL      0.076202
    158 H70        -5.2900   -4.6810   -1.6970 hc        1 MOL      0.076202
    159 N14        -4.3380   -1.6290    0.3440 n         1 MOL      0.168918
    160 C53        -3.5090   -1.7530    1.5780 c3        1 MOL     -0.104698
    161 C54        -4.2600   -1.2810    2.7650 c         1 MOL      0.435798
    162 O24        -4.1690   -1.9860    3.7820 o         1 MOL     -0.543668
    163 C55        -2.1440   -1.0960    1.4580 c3        1 MOL      0.058556
    164 C56        -1.3900   -1.9260    0.3290 c3        1 MOL     -0.113014
    165 C57        -0.1760   -1.1800   -0.1250 c         1 MOL      0.499967
    166 O25         0.8760   -1.7680    0.0350 o         1 MOL     -0.571940
    167 O26        -0.2920   -0.1000   -0.7170 o         1 MOL     -0.571940
    168 H71        -4.2280   -0.8050   -0.2380 hn        1 MOL      0.117721
    169 H72        -3.3650   -2.8220    1.7420 h1        1 MOL      0.090785
    170 H73        -1.6430   -1.2150    2.4140 hc        1 MOL      0.011580
    171 H74        -2.2440   -0.0200    1.3160 hc        1 MOL      0.011580
    172 H75        -2.1170   -2.1380   -0.4520 hc        1 MOL      0.032878
    173 H76        -0.9850   -2.8320    0.7860 hc        1 MOL      0.032878
    174 N15        -5.1180   -0.2580    2.5720 n         1 MOL     -0.082563
    175 C58        -5.9210    0.1560    3.7000 c3        1 MOL     -0.119154
    176 H77        -6.8800    0.5340    3.3440 h1        1 MOL      0.046512
    177 H78        -6.0890   -0.6950    4.3590 h1        1 MOL      0.046512
    178 H79        -5.4020    0.9430    4.2470 h1        1 MOL      0.046512
    179 H80        -5.2740    0.2880    1.7360 hn        1 MOL      0.065714
    180 Ca1         2.5720   -0.0810   -1.0310 Ca        1 MOL      1.664741
    181 O27         1.2140   -1.2840   -3.0630 oh        1 MOL     -0.912592
    182 H81         1.3680   -1.9420   -3.7410 ho        1 MOL      0.421905
    183 H82         0.6310   -0.6470   -3.4750 ho        1 MOL      0.421905
    184 O28         1.6970    1.8530   -2.6710 oh        1 MOL     -0.912592
    185 H83         1.1830    1.5550   -3.4220 ho        1 MOL      0.421905
    186 H84         2.5320    2.1430   -3.0460 ho        1 MOL      0.421905
@<TRIPOS>BOND
     1    1    2 1   
     2    1    4 1   
     3    1    5 1   
     4    1    6 1   
     5    2    3 2   
     6    2    7 1   
     7    7    8 1   
     8    7   15 1   
     9    8    9 1   
    10    8   11 1   
    11    8   16 1   
    12    9   10 2   
    13    9   19 1   
    14   11   12 1   
    15   11   17 1   
    16   11   18 1   
    17   12   13 1   
    18   12   14 1   
    19   19   20 1   
    20   19   27 1   
    21   20   21 1   
    22   20   23 1   
    23   20   28 1   
    24   21   22 2   
    25   21   38 1   
    26   23   24 1   
    27   23   25 1   
    28   23   29 1   
    29   24   26 1   
    30   24   30 1   
    31   24   31 1   
    32   25   32 1   
    33   25   33 1   
    34   25   34 1   
    35   26   35 1   
    36   26   36 1   
    37   26   37 1   
    38   38   39 1   
    39   38   46 1   
    40   39   40 1   
    41   39   42 1   
    42   39   47 1   
    43   40   41 2   
    44   40   50 1   
    45   42   43 1   
    46   42   48 1   
    47   42   49 1   
    48   43   44 1   
    49   43   45 1   
    50   50   51 1   
    51   50   54 1   
    52   51   52 1   
    53   51   55 1   
    54   51   56 1   
    55   52   53 2   
    56   52   57 1   
    57   57   58 1   
    58   57   65 1   
    59   58   59 1   
    60   58   61 1   
    61   58   66 1   
    62   59   60 2   
    63   59   69 1   
    64   61   62 1   
    65   61   67 1   
    66   61   68 1   
    67   62   63 1   
    68   62   64 1   
    69   69   70 1   
    70   69   73 1   
    71   70   71 1   
    72   70   74 1   
    73   70   75 1   
    74   71   72 2   
    75   71   76 1   
    76   76   77 1   
    77   76   85 1   
    78   77   78 1   
    79   77   80 1   
    80   77   86 1   
    81   78   79 2   
    82   78   93 1   
    83   80   81 1   
    84   80   87 1   
    85   80   88 1   
    86   81   82 1   
    87   81   89 1   
    88   81   90 1   
    89   82   83 1   
    90   82   84 2   
    91   83   91 1   
    92   83   92 1   
    93   93   94 1   
    94   93  100 1   
    95   94   95 1   
    96   94   97 1   
    97   94  101 1   
    98   95   96 2   
    99   95  109 1   
   100   97   98 1   
   101   97   99 1   
   102   97  102 1   
   103   98  103 1   
   104   98  104 1   
   105   98  105 1   
   106   99  106 1   
   107   99  107 1   
   108   99  108 1   
   109  109  110 1   
   110  109  117 1   
   111  110  111 1   
   112  110  113 1   
   113  110  118 1   
   114  111  112 2   
   115  111  123 1   
   116  113  114 1   
   117  113  119 1   
   118  113  120 1   
   119  114  115 1   
   120  114  116 2   
   121  115  121 1   
   122  115  122 1   
   123  123  124 1   
   124  123  135 1   
   125  124  125 1   
   126  124  127 1   
   127  124  136 1   
   128  125  126 2   
   129  125  144 1   
   130  127  128 1   
   131  127  137 1   
   132  127  138 1   
   133  128  129 ar  
   134  128  130 ar  
   135  129  131 ar  
   136  129  139 1   
   137  130  132 ar  
   138  130  140 1   
   139  131  133 ar  
   140  131  141 1   
   141  132  133 ar  
   142  132  142 1   
   143  133  134 1   
   144  134  143 1   
   145  144  145 1   
   146  144  153 1   
   147  145  146 1   
   148  145  148 1   
   149  145  154 1   
   150  146  147 2   
   151  146  159 1   
   152  148  149 1   
   153  148  155 1   
   154  148  156 1   
   155  149  150 1   
   156  149  157 1   
   157  149  158 1   
   158  150  151 1   
   159  150  152 1   
   160  159  160 1   
   161  159  168 1   
   162  160  161 1   
   163  160  163 1   
   164  160  169 1   
   165  161  162 2   
   166  161  174 1   
   167  163  164 1   
   168  163  170 1   
   169  163  171 1   
   170  164  165 1   
   171  164  172 1   
   172  164  173 1   
   173  165  166 1   
   174  165  167 1   
   175  174  175 1   
   176  174  179 1   
   177  175  176 1   
   178  175  177 1   
   179  175  178 1   
   180  181  182 1   
   181  181  183 1   
   182  184  185 1   
   183  184  186 1   
@<TRIPOS>SUBSTRUCTURE
     1 MOL         1 TEMP              0 ****  ****    0 ROOT
