@<TRIPOS>MOLECULE
MOL
  189   185     1     0     0
SMALL
resp


@<TRIPOS>ATOM
      1 C1          0.1180   -4.3790    5.4740 c3        1 MOL     -0.329959
      2 C2          0.7920   -3.6550    4.3170 c         1 MOL      0.743556
      3 O1          1.0830   -2.4570    4.3910 o         1 MOL     -0.614889
      4 H1         -0.7220   -4.9630    5.0970 hc        1 MOL      0.082957
      5 H2          0.8350   -5.0450    5.9540 hc        1 MOL      0.082957
      6 H3         -0.2440   -3.6500    6.1990 hc        1 MOL      0.082957
      7 N1          1.1120   -4.3250    3.2740 n         1 MOL     -0.566493
      8 C3          1.9580   -3.9010    2.1740 c3        1 MOL      0.108848
      9 C4          1.8800   -5.0020    1.0150 c         1 MOL      0.595320
     10 O2          2.1180   -6.1480    1.2260 o         1 MOL     -0.560918
     11 C5          3.4820   -3.8110    2.6300 c3        1 MOL     -0.383665
     12 C6          4.3620   -2.9870    1.6210 c         1 MOL      0.818433
     13 O3          5.5290   -2.7890    1.9430 o         1 MOL     -0.685356
     14 O4          3.8330   -2.3360    0.6230 o         1 MOL     -0.685356
     15 H4          0.6820   -5.2340    3.2620 hn        1 MOL      0.297343
     16 H5          1.6160   -2.9270    1.8300 h1        1 MOL      0.060482
     17 H6          3.9540   -4.7830    2.5240 hc        1 MOL      0.103659
     18 H7          3.5470   -3.3250    3.6000 hc        1 MOL      0.103659
     19 N2          1.3980   -4.5430   -0.1570 n         1 MOL     -0.438454
     20 C7          1.3120   -5.3470   -1.3790 c3        1 MOL     -0.054149
     21 C8          2.2930   -4.8810   -2.4950 c         1 MOL      0.497929
     22 O5          2.1230   -5.3500   -3.5780 o         1 MOL     -0.564733
     23 C9         -0.1260   -5.4240   -1.8860 c3        1 MOL      0.240808
     24 C10        -0.5730   -4.0720   -2.5100 c3        1 MOL     -0.042117
     25 C11        -1.0950   -5.9440   -0.7820 c3        1 MOL     -0.357775
     26 C12        -2.0450   -3.9380   -2.9530 c3        1 MOL     -0.307572
     27 H8          1.2160   -3.5670   -0.3490 hn        1 MOL      0.339436
     28 H9          1.6260   -6.3410   -1.0590 h1        1 MOL      0.070801
     29 H10        -0.1320   -6.1830   -2.6610 hc        1 MOL     -0.042096
     30 H11         0.0900   -3.8820   -3.3540 hc        1 MOL      0.066509
     31 H12        -0.4090   -3.3290   -1.7360 hc        1 MOL      0.066509
     32 H13        -0.7690   -6.8690   -0.3040 hc        1 MOL      0.079173
     33 H14        -1.3670   -5.2050   -0.0200 hc        1 MOL      0.079173
     34 H15        -2.0700   -6.1330   -1.2490 hc        1 MOL      0.079173
     35 H16        -2.6940   -4.0740   -2.0810 hc        1 MOL      0.079929
     36 H17        -2.1490   -3.0340   -3.5460 hc        1 MOL      0.079929
     37 H18        -2.3060   -4.7010   -3.6760 hc        1 MOL      0.079929
     38 N3          3.2160   -3.9910   -2.2270 n         1 MOL     -0.363071
     39 C13         4.0990   -3.4200   -3.3310 c3        1 MOL     -0.009130
     40 C14         5.4550   -2.8250   -2.8540 c         1 MOL      0.383322
     41 O6          6.4410   -2.7180   -3.6170 o         1 MOL     -0.564106
     42 C15         3.2570   -2.3800   -4.1240 c3        1 MOL     -0.218910
     43 C16         2.5990   -1.2420   -3.2970 c         1 MOL      0.752039
     44 O7          3.0970   -0.9370   -2.1930 o         1 MOL     -0.696269
     45 O8          1.6360   -0.6750   -3.7570 o         1 MOL     -0.696269
     46 H19         3.2270   -3.5520   -1.3160 hn        1 MOL      0.200106
     47 H20         4.3870   -4.2340   -3.9910 h1        1 MOL      0.107345
     48 H21         2.5380   -2.9270   -4.7320 hc        1 MOL      0.064491
     49 H22         3.8940   -1.9160   -4.8810 hc        1 MOL      0.064491
     50 N4          5.6160   -2.5060   -1.5870 n         1 MOL     -0.097265
     51 C17         6.9600   -2.2550   -1.0330 c3        1 MOL     -0.108706
     52 C18         7.5250   -0.9300   -1.2200 c         1 MOL      0.542971
     53 O9          8.7470   -0.8590   -1.2760 o         1 MOL     -0.618518
     54 H23         4.8370   -2.4760   -0.9570 hn        1 MOL      0.041356
     55 H24         7.6280   -2.9980   -1.4780 h1        1 MOL      0.082832
     56 H25         7.0410   -2.6160   -0.0050 h1        1 MOL      0.082832
     57 N5          6.6780    0.0640   -1.3200 n         1 MOL     -0.358628
     58 C19         6.8470    1.3580   -1.9610 c3        1 MOL      0.161458
     59 C20         7.1550    2.5500   -1.0110 c         1 MOL      0.265237
     60 O10         7.4580    3.6600   -1.5050 o         1 MOL     -0.510583
     61 C21         5.6630    1.7990   -2.8680 c3        1 MOL     -0.387842
     62 C22         4.2930    2.0390   -2.2250 c         1 MOL      0.835025
     63 O11         4.0620    1.7190   -1.0620 o         1 MOL     -0.704480
     64 O12         3.3910    2.4570   -2.9780 o         1 MOL     -0.704480
     65 H26         5.7100   -0.2380   -1.2520 hn        1 MOL      0.294377
     66 H27         7.7220    1.2870   -2.6070 h1        1 MOL      0.076248
     67 H28         5.4670    0.9900   -3.5830 hc        1 MOL      0.094372
     68 H29         6.0800    2.6930   -3.3280 hc        1 MOL      0.094372
     69 N6          7.0160    2.3450    0.2740 n         1 MOL     -0.108088
     70 C23         7.1960    3.4360    1.2690 c3        1 MOL     -0.072840
     71 C24         5.9170    4.2440    1.6730 c         1 MOL      0.476799
     72 O13         5.9550    5.3320    2.2640 o         1 MOL     -0.563186
     73 H30         6.9150    1.3910    0.5850 hn        1 MOL      0.157343
     74 H31         8.0020    4.1120    0.9940 h1        1 MOL      0.057144
     75 H32         7.5890    2.9840    2.1860 h1        1 MOL      0.057144
     76 N7          4.7480    3.6750    1.3550 n         1 MOL     -0.277632
     77 C25         3.4440    4.2450    1.7600 c3        1 MOL      0.035667
     78 C26         2.3970    3.1580    1.9090 c         1 MOL      0.443149
     79 O14         2.6510    1.9930    1.5070 o         1 MOL     -0.597456
     80 C27         3.0630    5.4160    0.8740 c3        1 MOL     -0.028102
     81 C28         2.9750    5.1780   -0.6390 c3        1 MOL      0.067739
     82 C29         2.8200    6.5190   -1.3530 c         1 MOL      0.614376
     83 N8          3.1100    6.6050   -2.6830 n         1 MOL     -0.823530
     84 O15         2.4850    7.5490   -0.7550 o         1 MOL     -0.564811
     85 H33         4.7610    2.7860    0.8680 hn        1 MOL      0.229801
     86 H34         3.4710    4.5350    2.8050 h1        1 MOL      0.015952
     87 H35         3.6630    6.3130    1.0480 hc        1 MOL      0.008286
     88 H36         2.0410    5.7010    1.1390 hc        1 MOL      0.008286
     89 H37         2.1500    4.4830   -0.7950 hc        1 MOL      0.008107
     90 H38         3.8550    4.7140   -1.0690 hc        1 MOL      0.008107
     91 H39         3.2890    5.7620   -3.2110 hn        1 MOL      0.359415
     92 H40         3.3830    7.4830   -3.1000 hn        1 MOL      0.359415
     93 N9          1.2710    3.5560    2.5180 n         1 MOL     -0.134488
     94 C30         0.0580    2.7850    2.7170 c3        1 MOL     -0.043648
     95 C31        -1.0770    3.2430    1.7620 c         1 MOL      0.394268
     96 O16        -1.3680    4.4650    1.6610 o         1 MOL     -0.549266
     97 C32        -0.4420    2.8660    4.1420 c3        1 MOL      0.146173
     98 C33        -1.6320    1.8870    4.3760 c3        1 MOL     -0.241460
     99 C34         0.7450    2.6060    5.1540 c3        1 MOL     -0.241460
    100 H41         1.1910    4.5570    2.6370 hn        1 MOL      0.209282
    101 H42         0.2070    1.7340    2.4490 h1        1 MOL      0.100177
    102 H43        -0.8460    3.8620    4.3390 hc        1 MOL     -0.011408
    103 H44        -2.5610    2.1420    3.8640 hc        1 MOL      0.053992
    104 H45        -1.3080    0.8810    4.1420 hc        1 MOL      0.053992
    105 H46        -2.0280    1.8690    5.3950 hc        1 MOL      0.053992
    106 H47         1.5850    3.2830    5.0340 hc        1 MOL      0.053992
    107 H48         0.3950    2.7710    6.1710 hc        1 MOL      0.053992
    108 H49         0.9750    1.5480    5.2120 hc        1 MOL      0.053992
    109 N10        -1.6920    2.2710    1.0050 n         1 MOL     -0.219445
    110 C35        -2.8480    2.4710    0.1010 c3        1 MOL      0.206812
    111 C36        -4.1300    2.0600    0.8990 c         1 MOL      0.106068
    112 O17        -4.0540    1.1950    1.7720 o         1 MOL     -0.234085
    113 C37        -2.5530    1.7020   -1.1710 c3        1 MOL     -0.420103
    114 C38        -3.7390    1.7740   -2.1560 c         1 MOL      0.713699
    115 N11        -4.1300    2.9180   -2.6710 n         1 MOL     -0.872119
    116 O18        -4.4130    0.7460   -2.3680 o         1 MOL     -0.537578
    117 H50        -1.3040    1.3460    0.9960 hn        1 MOL      0.266928
    118 H51        -3.0270    3.5310   -0.0700 h1        1 MOL     -0.000012
    119 H52        -2.3740    0.6550   -0.9170 hc        1 MOL      0.148860
    120 H53        -1.6920    2.2120   -1.5890 hc        1 MOL      0.148860
    121 H54        -3.7410    3.7720   -2.3020 hn        1 MOL      0.400748
    122 H55        -4.6970    2.8000   -3.5010 hn        1 MOL      0.400748
    123 N12        -5.3130    2.5950    0.5140 n         1 MOL     -0.126801
    124 C39        -6.6160    2.2030    1.0480 c3        1 MOL      0.089298
    125 C40        -6.8370    0.5910    1.0260 c         1 MOL      0.468323
    126 O19        -7.2830    0.0840    2.0450 o         1 MOL     -0.577240
    127 C41        -7.7530    2.9610    0.4080 c3        1 MOL     -0.286659
    128 C42        -7.8230    2.9360   -1.1370 ca        1 MOL     -0.040943
    129 C43        -7.3420    4.0250   -1.8480 ca        1 MOL     -0.037605
    130 C44        -8.3500    1.8100   -1.7980 ca        1 MOL     -0.037605
    131 C45        -7.3170    4.0970   -3.2380 ca        1 MOL     -0.373328
    132 C46        -8.2620    1.7910   -3.2250 ca        1 MOL     -0.373328
    133 C47        -7.8270    2.9600   -3.9140 ca        1 MOL      0.418646
    134 O20        -7.6520    2.9010   -5.2400 oh        1 MOL     -0.567162
    135 H56        -5.3880    3.3700   -0.1180 hn        1 MOL      0.169681
    136 H57        -6.6740    2.4930    2.0990 h1        1 MOL      0.037600
    137 H58        -7.5810    3.9810    0.7330 hc        1 MOL      0.098239
    138 H59        -8.6620    2.5330    0.8310 hc        1 MOL      0.098239
    139 H60        -6.8420    4.8550   -1.3780 ha        1 MOL      0.096879
    140 H61        -8.7340    0.9790   -1.2350 ha        1 MOL      0.096879
    141 H62        -6.8910    4.9050   -3.8180 ha        1 MOL      0.171460
    142 H63        -8.5730    0.9370   -3.8030 ha        1 MOL      0.171460
    143 H64        -7.9500    2.0510   -5.5740 ho        1 MOL      0.423076
    144 N13        -6.3610   -0.1060    0.0110 n         1 MOL     -0.060573
    145 C48        -6.3290   -1.5000   -0.0050 c3        1 MOL     -0.129752
    146 C49        -5.4490   -2.1870    1.1180 c         1 MOL      0.473034
    147 O21        -5.7880   -3.2690    1.5240 o         1 MOL     -0.523561
    148 C50        -5.7040   -1.9380   -1.3290 c3        1 MOL      0.060163
    149 C51        -6.6320   -1.6160   -2.5380 c3        1 MOL     -0.271683
    150 C52        -7.8370   -2.4840   -2.6230 c         1 MOL      0.719218
    151 O22        -7.6940   -3.6630   -3.0370 o         1 MOL     -0.735073
    152 O23        -8.9960   -2.0110   -2.4760 o         1 MOL     -0.735073
    153 H65        -6.0010    0.3850   -0.7940 hn        1 MOL      0.229992
    154 H66        -7.3250   -1.9120    0.1350 h1        1 MOL      0.095212
    155 H67        -5.5060   -3.0100   -1.3640 hc        1 MOL      0.016892
    156 H68        -4.7550   -1.4330   -1.5090 hc        1 MOL      0.016892
    157 H69        -6.0860   -1.7680   -3.4680 hc        1 MOL      0.051416
    158 H70        -6.9360   -0.5770   -2.4010 hc        1 MOL      0.051416
    159 N14        -4.3460   -1.5480    1.4650 n         1 MOL     -0.248050
    160 C53        -3.4210   -2.1000    2.4940 c3        1 MOL     -0.033075
    161 C54        -3.9570   -1.7420    3.8980 c         1 MOL      0.435094
    162 O24        -3.9410   -2.5430    4.8040 o         1 MOL     -0.521707
    163 C55        -2.0890   -1.5880    2.1970 c3        1 MOL     -0.180005
    164 C56        -1.4420   -1.9950    0.8580 c3        1 MOL      0.149772
    165 C57        -0.2280   -1.2750    0.3920 c         1 MOL      0.835486
    166 O25         0.7480   -1.8650   -0.1220 o         1 MOL     -0.849900
    167 O26        -0.0300   -0.0930    0.6850 o         1 MOL     -0.849900
    168 H71        -4.3340   -0.5530    1.2460 hn        1 MOL      0.076236
    169 H72        -3.4270   -3.1880    2.4600 h1        1 MOL      0.085558
    170 H73        -1.4080   -1.8090    3.0200 hc        1 MOL      0.071989
    171 H74        -2.2720   -0.5250    2.3290 hc        1 MOL      0.071989
    172 H75        -2.1310   -1.8870    0.0180 hc        1 MOL     -0.034007
    173 H76        -1.3070   -3.0770    0.8720 hc        1 MOL     -0.034007
    174 N15        -4.5640   -0.4860    3.9900 n         1 MOL     -0.100644
    175 C58        -4.9730    0.1250    5.3290 c3        1 MOL     -0.142800
    176 H77        -4.5830    1.1400    5.3990 h1        1 MOL      0.061309
    177 H78        -6.0600    0.1490    5.4010 h1        1 MOL      0.061309
    178 H79        -4.5680   -0.4770    6.1420 h1        1 MOL      0.061309
    179 H80        -4.4820    0.1850    3.2440 hn        1 MOL      0.090039
    180 Ca1         2.5880   -0.1630    0.1520 Ca        1 MOL      1.771640
    181 O27         2.4860   -0.9810    2.8610 oh        1 MOL     -0.878428
    182 H81         1.9990   -1.6980    3.2850 ho        1 MOL      0.406147
    183 H82         2.7860   -0.4360    3.5890 ho        1 MOL      0.406147
    184 O28         4.9790    0.0340    1.3590 oh        1 MOL     -0.878428
    185 H83         5.2900   -0.8440    1.5860 ho        1 MOL      0.406147
    186 H84         5.2740    0.5850    2.0820 ho        1 MOL      0.406147
    187 O29         1.3500    1.6850   -1.6840 oh        1 MOL     -0.878428
    188 H85         2.1850    1.8580   -2.1050 ho        1 MOL      0.406147
    189 H86         0.8200    1.2750   -2.3660 ho        1 MOL      0.406147
@<TRIPOS>BOND
     1    1    2 1   
     2    1    4 1   
     3    1    5 1   
     4    1    6 1   
     5    2    3 2   
     6    2    7 1   
     7    7    8 1   
     8    7   15 1   
     9    8    9 1   
    10    8   11 1   
    11    8   16 1   
    12    9   10 2   
    13    9   19 1   
    14   11   12 1   
    15   11   17 1   
    16   11   18 1   
    17   12   13 1   
    18   12   14 1   
    19   19   20 1   
    20   19   27 1   
    21   20   21 1   
    22   20   23 1   
    23   20   28 1   
    24   21   22 2   
    25   21   38 1   
    26   23   24 1   
    27   23   25 1   
    28   23   29 1   
    29   24   26 1   
    30   24   30 1   
    31   24   31 1   
    32   25   32 1   
    33   25   33 1   
    34   25   34 1   
    35   26   35 1   
    36   26   36 1   
    37   26   37 1   
    38   38   39 1   
    39   38   46 1   
    40   39   40 1   
    41   39   42 1   
    42   39   47 1   
    43   40   41 2   
    44   40   50 1   
    45   42   43 1   
    46   42   48 1   
    47   42   49 1   
    48   43   44 1   
    49   43   45 1   
    50   50   51 1   
    51   50   54 1   
    52   51   52 1   
    53   51   55 1   
    54   51   56 1   
    55   52   53 2   
    56   52   57 1   
    57   57   58 1   
    58   57   65 1   
    59   58   59 1   
    60   58   61 1   
    61   58   66 1   
    62   59   60 2   
    63   59   69 1   
    64   61   62 1   
    65   61   67 1   
    66   61   68 1   
    67   62   63 1   
    68   62   64 1   
    69   69   70 1   
    70   69   73 1   
    71   70   71 1   
    72   70   74 1   
    73   70   75 1   
    74   71   72 2   
    75   71   76 1   
    76   76   77 1   
    77   76   85 1   
    78   77   78 1   
    79   77   80 1   
    80   77   86 1   
    81   78   79 2   
    82   78   93 1   
    83   80   81 1   
    84   80   87 1   
    85   80   88 1   
    86   81   82 1   
    87   81   89 1   
    88   81   90 1   
    89   82   83 1   
    90   82   84 2   
    91   83   91 1   
    92   83   92 1   
    93   93   94 1   
    94   93  100 1   
    95   94   95 1   
    96   94   97 1   
    97   94  101 1   
    98   95   96 2   
    99   95  109 1   
   100   97   98 1   
   101   97   99 1   
   102   97  102 1   
   103   98  103 1   
   104   98  104 1   
   105   98  105 1   
   106   99  106 1   
   107   99  107 1   
   108   99  108 1   
   109  109  110 1   
   110  109  117 1   
   111  110  111 1   
   112  110  113 1   
   113  110  118 1   
   114  111  112 2   
   115  111  123 1   
   116  113  114 1   
   117  113  119 1   
   118  113  120 1   
   119  114  115 1   
   120  114  116 2   
   121  115  121 1   
   122  115  122 1   
   123  123  124 1   
   124  123  135 1   
   125  124  125 1   
   126  124  127 1   
   127  124  136 1   
   128  125  126 2   
   129  125  144 1   
   130  127  128 1   
   131  127  137 1   
   132  127  138 1   
   133  128  129 ar  
   134  128  130 ar  
   135  129  131 ar  
   136  129  139 1   
   137  130  132 ar  
   138  130  140 1   
   139  131  133 ar  
   140  131  141 1   
   141  132  133 ar  
   142  132  142 1   
   143  133  134 1   
   144  134  143 1   
   145  144  145 1   
   146  144  153 1   
   147  145  146 1   
   148  145  148 1   
   149  145  154 1   
   150  146  147 2   
   151  146  159 1   
   152  148  149 1   
   153  148  155 1   
   154  148  156 1   
   155  149  150 1   
   156  149  157 1   
   157  149  158 1   
   158  150  151 1   
   159  150  152 1   
   160  159  160 1   
   161  159  168 1   
   162  160  161 1   
   163  160  163 1   
   164  160  169 1   
   165  161  162 2   
   166  161  174 1   
   167  163  164 1   
   168  163  170 1   
   169  163  171 1   
   170  164  165 1   
   171  164  172 1   
   172  164  173 1   
   173  165  166 1   
   174  165  167 1   
   175  174  175 1   
   176  174  179 1   
   177  175  176 1   
   178  175  177 1   
   179  175  178 1   
   180  181  182 1   
   181  181  183 1   
   182  184  185 1   
   183  184  186 1   
   184  187  188 1   
   185  187  189 1   
@<TRIPOS>SUBSTRUCTURE
     1 MOL         1 TEMP              0 ****  ****    0 ROOT
