@<TRIPOS>MOLECULE
MOL
  186   183     1     0     0
SMALL
resp


@<TRIPOS>ATOM
      1 C1         -0.0930   -2.0290    6.1310 c3        1 MOL     -0.389432
      2 C2          0.3540   -2.0980    4.6420 c         1 MOL      0.762369
      3 O1         -0.2640   -2.7930    3.8790 o         1 MOL     -0.607741
      4 H1          0.7860   -2.0600    6.7740 hc        1 MOL      0.087016
      5 H2         -0.6370   -1.1000    6.3050 hc        1 MOL      0.087016
      6 H3         -0.7390   -2.8770    6.3570 hc        1 MOL      0.087016
      7 N1          1.4400   -1.5100    4.2600 n         1 MOL     -0.562592
      8 C3          2.1340   -1.6900    2.9790 c3        1 MOL      0.242169
      9 C4          2.3790   -3.1540    2.6020 c         1 MOL      0.487570
     10 O2          2.8770   -3.8940    3.4350 o         1 MOL     -0.607822
     11 C5          3.4190   -0.7810    2.9750 c3        1 MOL     -0.297064
     12 C6          4.1200   -0.7390    1.6840 c         1 MOL      0.712240
     13 O3          5.2210   -0.1170    1.7300 o         1 MOL     -0.623691
     14 O4          3.6280   -1.2580    0.6730 o         1 MOL     -0.623691
     15 H4          1.9570   -0.9850    4.9370 hn        1 MOL      0.283255
     16 H5          1.4350   -1.3750    2.2060 h1        1 MOL     -0.052438
     17 H6          4.0570   -0.8530    3.8650 hc        1 MOL      0.074949
     18 H7          3.0550    0.2380    3.1140 hc        1 MOL      0.074949
     19 N2          2.1820   -3.5890    1.3330 n         1 MOL     -0.081840
     20 C7          2.3800   -4.9650    0.9310 c3        1 MOL     -0.049527
     21 C8          3.5090   -5.1560   -0.1150 c         1 MOL      0.368679
     22 O5          4.2320   -6.1680   -0.0630 o         1 MOL     -0.572971
     23 C9          0.9540   -5.5020    0.5180 c3        1 MOL      0.286169
     24 C10        -0.0610   -5.5620    1.6790 c3        1 MOL      0.215126
     25 C11         1.0960   -6.9200    0.0190 c3        1 MOL     -0.396081
     26 C12        -1.3770   -6.1960    1.3390 c3        1 MOL     -0.143594
     27 H8          1.8240   -2.8580    0.7320 hn        1 MOL      0.059618
     28 H9          2.5880   -5.6040    1.7900 h1        1 MOL      0.074323
     29 H10         0.5540   -4.9040   -0.3000 hc        1 MOL     -0.005054
     30 H11        -0.1300   -4.5020    1.9360 hc        1 MOL     -0.062080
     31 H12         0.3710   -6.1660    2.4780 hc        1 MOL     -0.062080
     32 H13         0.1740   -7.2980   -0.4090 hc        1 MOL      0.071778
     33 H14         1.6560   -6.7640   -0.9060 hc        1 MOL      0.071778
     34 H15         1.6530   -7.5170    0.7450 hc        1 MOL      0.071778
     35 H16        -2.1280   -6.0370    2.1140 hc        1 MOL      0.015434
     36 H17        -1.8730   -5.8460    0.4300 hc        1 MOL      0.015434
     37 H18        -1.2490   -7.2680    1.3200 hc        1 MOL      0.015434
     38 N3          3.7980   -4.2230   -0.9990 n         1 MOL     -0.214488
     39 C13         4.9420   -4.2610   -1.8970 c3        1 MOL      0.134391
     40 C14         6.1990   -3.4970   -1.4110 c         1 MOL      0.436160
     41 O6          7.3070   -3.7850   -1.8850 o         1 MOL     -0.545517
     42 C15         4.4880   -3.7350   -3.2820 c3        1 MOL     -0.423263
     43 C16         3.5120   -2.5400   -3.1430 c         1 MOL      0.813333
     44 O7          3.4940   -1.7620   -2.1860 o         1 MOL     -0.691338
     45 O8          2.7710   -2.3640   -4.1400 o         1 MOL     -0.691338
     46 H19         3.3420   -3.3150   -0.9330 hn        1 MOL      0.183491
     47 H20         5.2960   -5.2880   -1.9860 h1        1 MOL      0.065496
     48 H21         3.9380   -4.5370   -3.7670 hc        1 MOL      0.105442
     49 H22         5.3820   -3.4270   -3.8230 hc        1 MOL      0.105442
     50 N4          6.0980   -2.5920   -0.3660 n         1 MOL     -0.179890
     51 C17         7.3510   -2.0280    0.2230 c3        1 MOL     -0.157725
     52 C18         7.8960   -0.7720   -0.3780 c         1 MOL      0.596498
     53 O9          9.1050   -0.7180   -0.6540 o         1 MOL     -0.614490
     54 H23         5.2210   -2.1610   -0.1050 hn        1 MOL      0.104717
     55 H24         8.1640   -2.7570    0.2280 h1        1 MOL      0.074598
     56 H25         7.1630   -1.5760    1.1860 h1        1 MOL      0.074598
     57 N5          7.0530    0.2300   -0.6970 n         1 MOL     -0.218910
     58 C19         7.2600    1.5650   -1.2140 c3        1 MOL     -0.111718
     59 C20         7.1520    2.6910   -0.1520 c         1 MOL      0.473217
     60 O10         7.4950    3.8180   -0.5070 o         1 MOL     -0.567717
     61 C21         6.3280    1.7550   -2.4710 c3        1 MOL     -0.048268
     62 C22         4.8360    1.5930   -2.1110 c         1 MOL      0.709362
     63 O11         4.4550    1.7840   -0.9110 o         1 MOL     -0.720578
     64 O12         4.0590    1.1150   -2.9910 o         1 MOL     -0.720578
     65 H26         6.0760    0.0630   -0.4850 hn        1 MOL      0.090749
     66 H27         8.3020    1.6590   -1.5130 h1        1 MOL      0.101611
     67 H28         6.5340    1.1810   -3.3770 hc        1 MOL      0.033985
     68 H29         6.4640    2.7510   -2.9100 hc        1 MOL      0.033985
     69 N6          6.7280    2.3520    1.0530 n         1 MOL     -0.248465
     70 C23         6.5380    3.2740    2.2540 c3        1 MOL     -0.133928
     71 C24         5.1980    4.0990    2.2000 c         1 MOL      0.557303
     72 O13         5.0890    5.1280    2.9280 o         1 MOL     -0.611338
     73 H30         6.3160    1.4320    1.0270 hn        1 MOL      0.188270
     74 H31         7.3340    4.0110    2.1940 h1        1 MOL      0.089297
     75 H32         6.6020    2.6590    3.1530 h1        1 MOL      0.089297
     76 N7          4.2340    3.7540    1.3140 n         1 MOL     -0.351829
     77 C25         2.8610    4.3270    1.2830 c3        1 MOL     -0.024428
     78 C26         1.7950    3.2110    1.3600 c         1 MOL      0.716868
     79 O14         2.0630    2.0570    0.9550 o         1 MOL     -0.710527
     80 C27         2.8190    5.1530   -0.0600 c3        1 MOL      0.018747
     81 C28         3.6150    6.4430    0.0620 c3        1 MOL     -0.156121
     82 C29         3.8020    7.1640   -1.2250 c         1 MOL      0.712626
     83 N8          4.2480    8.3970   -1.1400 n         1 MOL     -0.839175
     84 O15         3.5540    6.6440   -2.2990 o         1 MOL     -0.569395
     85 H33         4.4170    2.9490    0.7410 hn        1 MOL      0.303132
     86 H34         2.7320    5.0430    2.0990 h1        1 MOL      0.055898
     87 H35         1.8010    5.4670   -0.2620 hc        1 MOL      0.011050
     88 H36         3.1770    4.5530   -0.9030 hc        1 MOL      0.011050
     89 H37         4.6140    6.1910    0.4130 hc        1 MOL      0.047468
     90 H38         3.1770    7.1010    0.8190 hc        1 MOL      0.047468
     91 H39         4.7680    8.6250   -0.3030 hn        1 MOL      0.357394
     92 H40         4.4440    8.8760   -2.0050 hn        1 MOL      0.357394
     93 N9          0.6470    3.6090    1.9160 n         1 MOL     -0.618721
     94 C30        -0.5450    2.7170    1.9610 c3        1 MOL      0.218255
     95 C31        -1.5280    3.0480    0.8540 c         1 MOL      0.404330
     96 O16        -1.9400    4.1840    0.8650 o         1 MOL     -0.611005
     97 C32        -1.1860    2.6190    3.4040 c3        1 MOL      0.085998
     98 C33        -2.4230    1.7080    3.4900 c3        1 MOL     -0.158048
     99 C34        -0.1370    2.0860    4.4250 c3        1 MOL     -0.158048
    100 H41         0.5530    4.5820    2.1710 hn        1 MOL      0.309012
    101 H42        -0.1090    1.7290    1.8000 h1        1 MOL      0.169052
    102 H43        -1.5110    3.6190    3.6980 hc        1 MOL     -0.008565
    103 H44        -2.8670    1.6520    4.4740 hc        1 MOL      0.026743
    104 H45        -3.1990    2.1810    2.8880 hc        1 MOL      0.026743
    105 H46        -2.2150    0.7140    3.1000 hc        1 MOL      0.026743
    106 H47         0.8610    2.4800    4.2440 hc        1 MOL      0.026743
    107 H48        -0.4580    2.3690    5.4270 hc        1 MOL      0.026743
    108 H49         0.0350    1.0210    4.2610 hc        1 MOL      0.026743
    109 N10        -1.7840    2.1770   -0.0640 n         1 MOL      0.038419
    110 C35        -2.8710    2.4090   -0.9400 c3        1 MOL     -0.004650
    111 C36        -4.1510    1.8380   -0.4180 c         1 MOL      0.338258
    112 O17        -4.1310    0.9960    0.5350 o         1 MOL     -0.229786
    113 C37        -2.4260    1.8310   -2.2390 c3        1 MOL     -0.432931
    114 C38        -3.2460    2.1860   -3.5040 c         1 MOL      0.723819
    115 N11        -2.7380    2.8020   -4.5490 n         1 MOL     -0.804381
    116 O18        -4.4380    1.8270   -3.5320 o         1 MOL     -0.598582
    117 H50        -1.4430    1.2550    0.1850 hn        1 MOL     -0.013754
    118 H51        -3.0670    3.4710   -0.9790 h1        1 MOL      0.070245
    119 H52        -2.3690    0.7400   -2.1630 hc        1 MOL      0.156304
    120 H53        -1.4340    2.2240   -2.4640 hc        1 MOL      0.156304
    121 H54        -1.7590    3.0470   -4.5380 hn        1 MOL      0.378504
    122 H55        -3.3310    3.0220   -5.3390 hn        1 MOL      0.378504
    123 N12        -5.3200    2.2990   -0.8370 n         1 MOL     -0.476025
    124 C39        -6.6240    1.8130   -0.3480 c3        1 MOL      0.076626
    125 C40        -6.7920    0.3070   -0.4850 c         1 MOL      0.787565
    126 O19        -7.4410   -0.2930    0.3350 o         1 MOL     -0.539847
    127 C41        -7.8260    2.5140   -1.0740 c3        1 MOL     -0.076582
    128 C42        -9.1650    2.0430   -0.4470 ca        1 MOL     -0.038636
    129 C43        -9.5320    2.3870    0.9020 ca        1 MOL     -0.181281
    130 C44       -10.1020    1.3340   -1.1720 ca        1 MOL     -0.181281
    131 C45       -10.7680    2.1070    1.3920 ca        1 MOL     -0.121211
    132 C46       -11.4220    1.0840   -0.7250 ca        1 MOL     -0.121211
    133 C47       -11.8020    1.5200    0.5710 ca        1 MOL      0.193671
    134 O20       -13.0350    1.2800    1.0920 oh        1 MOL     -0.500967
    135 H56        -5.4330    3.0140   -1.5430 hn        1 MOL      0.294304
    136 H57        -6.7800    2.0940    0.6950 h1        1 MOL      0.067053
    137 H58        -7.8570    2.1640   -2.1030 hc        1 MOL      0.043708
    138 H59        -7.7580    3.6050   -1.0880 hc        1 MOL      0.043708
    139 H60        -8.8840    3.0360    1.4720 ha        1 MOL      0.133223
    140 H61        -9.7630    1.0530   -2.1570 ha        1 MOL      0.133223
    141 H62       -11.0170    2.4690    2.3800 ha        1 MOL      0.101346
    142 H63       -12.1110    0.6030   -1.4010 ha        1 MOL      0.101346
    143 H64       -13.6430    0.7290    0.6010 ho        1 MOL      0.385667
    144 N13        -6.1020   -0.2920   -1.4660 n         1 MOL     -0.713247
    145 C48        -6.1420   -1.7960   -1.5570 c3        1 MOL      0.134938
    146 C49        -5.2910   -2.4930   -0.4980 c         1 MOL      0.347656
    147 O21        -5.4970   -3.6690   -0.2590 o         1 MOL     -0.524525
    148 C50        -5.7010   -2.1730   -3.0630 c3        1 MOL     -0.035136
    149 C51        -4.1540   -2.3020   -3.2730 c3        1 MOL     -0.166382
    150 C52        -3.6880   -2.7270   -4.6680 c         1 MOL      0.748978
    151 O22        -2.4850   -2.8950   -4.9050 o         1 MOL     -0.743417
    152 O23        -4.4930   -2.9760   -5.6000 o         1 MOL     -0.743417
    153 H65        -5.6020    0.2080   -2.1910 hn        1 MOL      0.436744
    154 H66        -7.1760   -2.0580   -1.3440 h1        1 MOL      0.035747
    155 H67        -6.1000   -1.3740   -3.6970 hc        1 MOL     -0.009582
    156 H68        -6.1590   -3.1110   -3.3650 hc        1 MOL     -0.009582
    157 H69        -3.7620   -2.9660   -2.5040 hc        1 MOL      0.034037
    158 H70        -3.8200   -1.3090   -2.9890 hc        1 MOL      0.034037
    159 N14        -4.4490   -1.7450    0.1720 n         1 MOL     -0.095953
    160 C53        -3.6350   -2.3020    1.2410 c3        1 MOL     -0.151573
    161 C54        -4.4140   -1.9700    2.5830 c         1 MOL      0.431942
    162 O24        -4.4630   -2.8080    3.5210 o         1 MOL     -0.545812
    163 C55        -2.1900   -1.7770    1.1650 c3        1 MOL      0.267587
    164 C56        -1.5610   -1.9380   -0.2470 c3        1 MOL      0.212929
    165 C57        -0.2110   -1.1940   -0.2580 c         1 MOL      0.417618
    166 O25         0.7470   -1.9110   -0.6750 o         1 MOL     -0.642899
    167 O26        -0.1630    0.0810   -0.1610 o         1 MOL     -0.642899
    168 H71        -4.4220   -0.7390    0.1240 hn        1 MOL      0.131862
    169 H72        -3.5390   -3.3760    1.0880 h1        1 MOL      0.111824
    170 H73        -1.6200   -2.4980    1.7590 hc        1 MOL     -0.054866
    171 H74        -2.1220   -0.7540    1.5230 hc        1 MOL     -0.054866
    172 H75        -2.2140   -1.5260   -1.0120 hc        1 MOL     -0.039903
    173 H76        -1.4650   -2.9980   -0.4980 hc        1 MOL     -0.039903
    174 N15        -5.0920   -0.8160    2.5940 n         1 MOL     -0.033424
    175 C58        -5.7840   -0.3010    3.7760 c3        1 MOL     -0.290609
    176 H77        -5.0590    0.1510    4.4530 h1        1 MOL      0.102286
    177 H78        -6.5130    0.4500    3.4720 h1        1 MOL      0.102286
    178 H79        -6.2950   -1.1180    4.2840 h1        1 MOL      0.102286
    179 H80        -5.1120   -0.2070    1.7940 hn        1 MOL     -0.036759
    180 Ca1         2.3550    0.2540   -1.1410 Ca        1 MOL      1.806300
    181 O27         0.9910   -0.3210   -3.4790 oh        1 MOL     -0.898824
    182 H81         1.5300   -1.0800   -3.6990 ho        1 MOL      0.416060
    183 H82         0.2630   -0.3670   -4.1030 ho        1 MOL      0.416060
    184 O28         1.2150    2.9180   -1.7250 oh        1 MOL     -0.898824
    185 H83         1.7470    3.2960   -2.4220 ho        1 MOL      0.416060
    186 H84         0.5370    3.5810   -1.5570 ho        1 MOL      0.416060
@<TRIPOS>BOND
     1    1    2 1   
     2    1    4 1   
     3    1    5 1   
     4    1    6 1   
     5    2    3 2   
     6    2    7 1   
     7    7    8 1   
     8    7   15 1   
     9    8    9 1   
    10    8   11 1   
    11    8   16 1   
    12    9   10 2   
    13    9   19 1   
    14   11   12 1   
    15   11   17 1   
    16   11   18 1   
    17   12   13 1   
    18   12   14 1   
    19   19   20 1   
    20   19   27 1   
    21   20   21 1   
    22   20   23 1   
    23   20   28 1   
    24   21   22 2   
    25   21   38 1   
    26   23   24 1   
    27   23   25 1   
    28   23   29 1   
    29   24   26 1   
    30   24   30 1   
    31   24   31 1   
    32   25   32 1   
    33   25   33 1   
    34   25   34 1   
    35   26   35 1   
    36   26   36 1   
    37   26   37 1   
    38   38   39 1   
    39   38   46 1   
    40   39   40 1   
    41   39   42 1   
    42   39   47 1   
    43   40   41 2   
    44   40   50 1   
    45   42   43 1   
    46   42   48 1   
    47   42   49 1   
    48   43   44 1   
    49   43   45 1   
    50   50   51 1   
    51   50   54 1   
    52   51   52 1   
    53   51   55 1   
    54   51   56 1   
    55   52   53 2   
    56   52   57 1   
    57   57   58 1   
    58   57   65 1   
    59   58   59 1   
    60   58   61 1   
    61   58   66 1   
    62   59   60 2   
    63   59   69 1   
    64   61   62 1   
    65   61   67 1   
    66   61   68 1   
    67   62   63 1   
    68   62   64 1   
    69   69   70 1   
    70   69   73 1   
    71   70   71 1   
    72   70   74 1   
    73   70   75 1   
    74   71   72 2   
    75   71   76 1   
    76   76   77 1   
    77   76   85 1   
    78   77   78 1   
    79   77   80 1   
    80   77   86 1   
    81   78   79 2   
    82   78   93 1   
    83   80   81 1   
    84   80   87 1   
    85   80   88 1   
    86   81   82 1   
    87   81   89 1   
    88   81   90 1   
    89   82   83 1   
    90   82   84 2   
    91   83   91 1   
    92   83   92 1   
    93   93   94 1   
    94   93  100 1   
    95   94   95 1   
    96   94   97 1   
    97   94  101 1   
    98   95   96 2   
    99   95  109 1   
   100   97   98 1   
   101   97   99 1   
   102   97  102 1   
   103   98  103 1   
   104   98  104 1   
   105   98  105 1   
   106   99  106 1   
   107   99  107 1   
   108   99  108 1   
   109  109  110 1   
   110  109  117 1   
   111  110  111 1   
   112  110  113 1   
   113  110  118 1   
   114  111  112 2   
   115  111  123 1   
   116  113  114 1   
   117  113  119 1   
   118  113  120 1   
   119  114  115 1   
   120  114  116 2   
   121  115  121 1   
   122  115  122 1   
   123  123  124 1   
   124  123  135 1   
   125  124  125 1   
   126  124  127 1   
   127  124  136 1   
   128  125  126 2   
   129  125  144 1   
   130  127  128 1   
   131  127  137 1   
   132  127  138 1   
   133  128  129 ar  
   134  128  130 ar  
   135  129  131 ar  
   136  129  139 1   
   137  130  132 ar  
   138  130  140 1   
   139  131  133 ar  
   140  131  141 1   
   141  132  133 ar  
   142  132  142 1   
   143  133  134 1   
   144  134  143 1   
   145  144  145 1   
   146  144  153 1   
   147  145  146 1   
   148  145  148 1   
   149  145  154 1   
   150  146  147 2   
   151  146  159 1   
   152  148  149 1   
   153  148  155 1   
   154  148  156 1   
   155  149  150 1   
   156  149  157 1   
   157  149  158 1   
   158  150  151 1   
   159  150  152 1   
   160  159  160 1   
   161  159  168 1   
   162  160  161 1   
   163  160  163 1   
   164  160  169 1   
   165  161  162 2   
   166  161  174 1   
   167  163  164 1   
   168  163  170 1   
   169  163  171 1   
   170  164  165 1   
   171  164  172 1   
   172  164  173 1   
   173  165  166 1   
   174  165  167 1   
   175  174  175 1   
   176  174  179 1   
   177  175  176 1   
   178  175  177 1   
   179  175  178 1   
   180  181  182 1   
   181  181  183 1   
   182  184  185 1   
   183  184  186 1   
@<TRIPOS>SUBSTRUCTURE
     1 MOL         1 TEMP              0 ****  ****    0 ROOT
