@<TRIPOS>MOLECULE
MOL
  169   169     1     0     0
SMALL
resp


@<TRIPOS>ATOM
      1 C1          0.2170   -3.8250    5.6560 c3        1 MOL     -0.361387
      2 C2          0.6580   -3.3910    4.2770 c         1 MOL      0.651454
      3 O1          0.0750   -3.8100    3.2570 o         1 MOL     -0.563508
      4 H1         -0.8690   -3.7640    5.7250 hc        1 MOL      0.093028
      5 H2          0.5340   -4.8530    5.8320 hc        1 MOL      0.093028
      6 H3          0.6650   -3.1720    6.4040 hc        1 MOL      0.093028
      7 N1          1.7170   -2.5820    4.1190 n         1 MOL     -0.503905
      8 C3          2.3000   -2.3060    2.7940 c3        1 MOL      0.038840
      9 C4          2.8500   -3.5550    2.1670 c         1 MOL      0.694810
     10 O2          3.7360   -4.2260    2.6940 o         1 MOL     -0.614774
     11 C5          3.3220   -1.1790    3.0630 c3        1 MOL     -0.288859
     12 C6          4.2300   -0.8610    1.8570 c         1 MOL      0.665621
     13 O3          3.7510   -0.8380    0.6910 o         1 MOL     -0.633784
     14 O4          5.4020   -0.5310    2.1690 o         1 MOL     -0.633784
     15 H4          2.2060   -2.2790    4.9500 hn        1 MOL      0.300367
     16 H5          1.5650   -1.8810    2.1180 h1        1 MOL      0.044467
     17 H6          3.8910   -1.4050    3.9560 hc        1 MOL      0.072710
     18 H7          2.7260   -0.3290    3.4000 hc        1 MOL      0.072710
     19 N2          2.2290   -3.9390    1.0280 n         1 MOL     -0.350859
     20 C7          2.4310   -5.2850    0.3940 c3        1 MOL      0.149792
     21 C8          3.0800   -5.2040   -1.0580 c         1 MOL      0.334517
     22 O5          3.3350   -6.2000   -1.7260 o         1 MOL     -0.510648
     23 C9          1.1530   -6.0780    0.5020 c3        1 MOL     -0.281943
     24 H8          1.4460   -3.3920    0.7230 hn        1 MOL      0.256917
     25 H9          3.1120   -5.8170    1.0590 h1        1 MOL      0.040361
     26 H10         1.3290   -7.0120   -0.0370 hc        1 MOL      0.074948
     27 H11         0.6070   -6.1040    1.4450 hc        1 MOL      0.074948
     28 H12         0.4280   -5.6560   -0.2030 hc        1 MOL      0.074948
     29 N3          3.3090   -3.9470   -1.5770 n         1 MOL     -0.129508
     30 C10         4.2000   -3.7950   -2.7040 c3        1 MOL      0.003121
     31 C11         5.5650   -3.2640   -2.2540 c         1 MOL      0.386472
     32 O6          6.5860   -3.1710   -2.9890 o         1 MOL     -0.551938
     33 C12         3.5060   -2.9180   -3.7500 c3        1 MOL     -0.112992
     34 C13         3.0880   -1.6280   -3.0580 c         1 MOL      0.710648
     35 O7          3.7880   -0.9690   -2.2610 o         1 MOL     -0.693882
     36 O8          1.9530   -1.1240   -3.2540 o         1 MOL     -0.693882
     37 H13         2.8090   -3.1900   -1.1460 hn        1 MOL      0.182962
     38 H14         4.4010   -4.7550   -3.1890 h1        1 MOL      0.089243
     39 H15         2.6570   -3.4630   -4.1570 hc        1 MOL      0.028452
     40 H16         4.1150   -2.6720   -4.6250 hc        1 MOL      0.028452
     41 N4          5.6360   -2.9220   -0.9700 n         1 MOL     -0.178406
     42 C14         6.8010   -2.2150   -0.3780 c3        1 MOL     -0.374732
     43 C15         7.0870   -0.7950   -0.7580 c         1 MOL      0.700420
     44 O9          8.2840   -0.4520   -0.6900 o         1 MOL     -0.656926
     45 H17         4.7800   -2.9250   -0.4360 hn        1 MOL      0.107929
     46 H18         7.6640   -2.8170   -0.6480 h1        1 MOL      0.155343
     47 H19         6.5790   -2.2600    0.6890 h1        1 MOL      0.155343
     48 N5          6.1810   -0.0040   -1.2930 n         1 MOL     -0.290654
     49 C16         6.5280    1.3910   -1.7480 c3        1 MOL      0.097180
     50 C17         6.4180    2.4440   -0.6420 c         1 MOL      0.304632
     51 O10         6.6040    3.6370   -0.9030 o         1 MOL     -0.520177
     52 C18         5.7100    1.7120   -2.9920 c3        1 MOL     -0.405943
     53 C19         4.4610    2.4530   -2.6120 c         1 MOL      0.678032
     54 N6          4.2650    3.6080   -3.1700 n         1 MOL     -0.656098
     55 O11         3.6200    1.9790   -1.8550 o         1 MOL     -0.621043
     56 H20         5.2060   -0.2530   -1.4160 hn        1 MOL      0.215402
     57 H21         7.5850    1.3440   -2.0280 h1        1 MOL      0.106130
     58 H22         5.4310    0.7980   -3.5260 hc        1 MOL      0.130855
     59 H23         6.4070    2.3250   -3.5540 hc        1 MOL      0.130855
     60 H24         4.8950    4.0600   -3.8200 hn        1 MOL      0.334774
     61 H25         3.3260    3.9210   -2.9560 hn        1 MOL      0.334774
     62 N7          6.1430    2.0440    0.6190 n         1 MOL     -0.026076
     63 C20         6.1890    2.9420    1.7550 c3        1 MOL     -0.236656
     64 C21         4.9640    3.8770    1.9630 c         1 MOL      0.610619
     65 O12         5.0280    4.5770    2.9250 o         1 MOL     -0.607108
     66 H26         5.8710    1.0730    0.7290 hn        1 MOL      0.096423
     67 H27         7.0990    3.5260    1.6840 h1        1 MOL      0.109461
     68 H28         6.2290    2.3580    2.6670 h1        1 MOL      0.109461
     69 N8          4.0260    3.9290    1.0960 n         1 MOL     -0.199300
     70 C22         2.7030    4.5640    1.2680 c3        1 MOL     -0.120363
     71 C23         1.5490    3.5310    1.0330 c         1 MOL      0.725406
     72 O13         1.7550    2.5290    0.3670 o         1 MOL     -0.688126
     73 C24         2.5450    5.6480    0.1890 c3        1 MOL      0.513485
     74 C25         3.3270    6.9190    0.5180 c3        1 MOL     -0.484760
     75 O14         2.9450    5.3120   -1.0930 oh        1 MOL     -0.586303
     76 H29         4.2300    3.3880    0.2710 hn        1 MOL      0.128204
     77 H30         2.5960    4.9920    2.2610 h1        1 MOL      0.053560
     78 H31         1.4790    5.9020    0.1620 h1        1 MOL     -0.053861
     79 H32         2.8800    6.1110   -1.6300 ho        1 MOL      0.380813
     80 H33         4.3450    6.9070    0.1430 hc        1 MOL      0.108209
     81 H34         2.8000    7.7530    0.0600 hc        1 MOL      0.108209
     82 H35         3.4030    7.0610    1.6030 hc        1 MOL      0.108209
     83 N9          0.3660    3.8340    1.5060 n         1 MOL     -0.607455
     84 C26        -0.7080    2.8290    1.5460 c3        1 MOL     -0.052028
     85 C27        -1.6320    3.0950    0.3360 c         1 MOL      0.699900
     86 O15        -2.1630    4.2160    0.2020 o         1 MOL     -0.615295
     87 C28        -1.5320    2.9290    2.9270 c3        1 MOL      0.436898
     88 C29        -0.7030    3.4420    4.1000 c3        1 MOL      0.012834
     89 C30        -2.1410    1.5700    3.1130 c3        1 MOL     -0.345625
     90 C31        -1.4160    3.2610    5.4110 c3        1 MOL     -0.269883
     91 H36         0.1750    4.7460    1.8790 hn        1 MOL      0.303515
     92 H37        -0.3220    1.8180    1.4640 h1        1 MOL      0.095878
     93 H38        -2.3410    3.6330    2.7160 hc        1 MOL     -0.118637
     94 H39        -0.4480    4.4620    3.8270 hc        1 MOL      0.005163
     95 H40         0.1780    2.7970    4.0710 hc        1 MOL      0.005163
     96 H41        -2.6810    1.5750    4.0660 hc        1 MOL      0.052619
     97 H42        -2.7670    1.2310    2.2830 hc        1 MOL      0.052619
     98 H43        -1.3220    0.8610    3.1690 hc        1 MOL      0.052619
     99 H44        -1.2630    2.2270    5.7260 hc        1 MOL      0.063383
    100 H45        -0.9530    3.9340    6.1200 hc        1 MOL      0.063383
    101 H46        -2.4560    3.5540    5.2960 hc        1 MOL      0.063383
    102 N10        -1.7860    2.0020   -0.4200 n         1 MOL     -0.451998
    103 C32        -2.7710    1.9020   -1.5200 c3        1 MOL     -0.086225
    104 C33        -4.1720    1.4620   -1.0240 c         1 MOL      0.658488
    105 O16        -4.1320    0.7850    0.0070 o         1 MOL     -0.499560
    106 C34        -2.2530    1.0210   -2.6950 c3        1 MOL     -0.157134
    107 C35        -0.9010    1.4170   -3.0440 c         1 MOL      0.780149
    108 O17        -0.6930    2.1790   -4.0400 o         1 MOL     -0.728662
    109 O18         0.0980    0.8910   -2.5230 o         1 MOL     -0.728662
    110 H47        -1.3100    1.1720   -0.1030 hn        1 MOL      0.296316
    111 H48        -2.9540    2.9020   -1.9200 h1        1 MOL      0.083637
    112 H49        -2.9360    1.1250   -3.5280 hc        1 MOL      0.042406
    113 H50        -2.3230   -0.0700   -2.5960 hc        1 MOL      0.042406
    114 N11        -5.2710    1.7330   -1.7100 n         1 MOL     -0.916119
    115 C36        -6.5310    1.4620   -1.0300 c3        1 MOL      0.791293
    116 C37        -6.7400   -0.1320   -0.8250 c         1 MOL      0.143855
    117 O19        -7.3310   -0.4020    0.2170 o         1 MOL     -0.421797
    118 C38        -7.6690    2.0360   -1.8740 c3        1 MOL     -0.417146
    119 C39        -9.1160    1.7760   -1.4270 ca        1 MOL      0.163519
    120 C40       -10.0340    1.3340   -2.4500 ca        1 MOL     -0.193358
    121 C41        -9.5100    1.7860   -0.0870 ca        1 MOL     -0.193358
    122 C42       -11.3060    0.9190   -2.0380 ca        1 MOL     -0.102071
    123 C43       -10.7280    1.4380    0.2700 ca        1 MOL     -0.102071
    124 C44       -11.6190    0.8880   -0.6870 ca        1 MOL     -0.125324
    125 H51        -5.2470    2.3640   -2.5080 hn        1 MOL      0.396696
    126 H52        -6.6060    1.8670   -0.0200 h1        1 MOL     -0.056717
    127 H53        -7.6230    1.6660   -2.9040 hc        1 MOL      0.088170
    128 H54        -7.6080    3.1130   -1.7450 hc        1 MOL      0.088170
    129 H55        -9.6990    1.3190   -3.4740 ha        1 MOL      0.127121
    130 H56        -8.8210    2.0170    0.7060 ha        1 MOL      0.127121
    131 H57       -12.0310    0.6790   -2.7960 ha        1 MOL      0.106011
    132 H58       -10.9670    1.4090    1.3130 ha        1 MOL      0.106011
    133 H59       -12.5420    0.4540   -0.3290 ha        1 MOL      0.100465
    134 N12        -6.2630   -1.0300   -1.7090 n         1 MOL     -0.023868
    135 C45        -6.2640   -2.4990   -1.2860 c3        1 MOL     -0.079972
    136 C46        -5.5120   -2.8530   -0.0210 c         1 MOL      0.155986
    137 O20        -5.9150   -3.8280    0.6390 o         1 MOL     -0.474020
    138 C47        -5.6350   -3.2160   -2.5150 c3        1 MOL      0.235237
    139 C48        -5.6850   -2.2360   -3.6950 c3        1 MOL     -0.365074
    140 C49        -5.6510   -0.8910   -2.9880 c3        1 MOL     -0.028472
    141 H60        -7.2920   -2.8610   -1.1740 h1        1 MOL      0.096820
    142 H61        -4.5920   -3.4750   -2.3250 hc        1 MOL     -0.014085
    143 H62        -6.1120   -4.1600   -2.7720 hc        1 MOL     -0.014085
    144 H63        -4.7490   -2.4280   -4.2190 hc        1 MOL      0.113032
    145 H64        -6.6550   -2.4270   -4.1510 hc        1 MOL      0.113032
    146 H65        -4.6000   -0.7450   -2.7750 h1        1 MOL      0.078945
    147 H66        -6.1320   -0.1020   -3.5860 h1        1 MOL      0.078945
    148 N13        -4.5150   -2.0910    0.3560 n         1 MOL      0.008411
    149 C50        -3.6660   -2.2720    1.5250 c3        1 MOL     -0.068815
    150 C51        -4.3090   -1.7090    2.8540 c         1 MOL      0.393181
    151 O21        -4.3180   -2.3380    3.9140 o         1 MOL     -0.526506
    152 C52        -2.2730   -1.7640    1.3050 c3        1 MOL      0.093361
    153 C53        -1.5820   -2.2350    0.0390 c3        1 MOL      0.021735
    154 C54        -0.2460   -1.5490   -0.0170 c         1 MOL      0.748460
    155 O22         0.7220   -2.2390   -0.5140 o         1 MOL     -0.800118
    156 O23        -0.1000   -0.3250    0.1990 o         1 MOL     -0.800118
    157 H67        -4.2640   -1.2720   -0.1910 hn        1 MOL      0.199485
    158 H68        -3.4630   -3.3160    1.7520 h1        1 MOL      0.069944
    159 H69        -1.6510   -2.0530    2.1450 hc        1 MOL     -0.000906
    160 H70        -2.4220   -0.6930    1.4290 hc        1 MOL     -0.000906
    161 H71        -2.2630   -1.9540   -0.7630 hc        1 MOL     -0.005220
    162 H72        -1.4680   -3.3180    0.0600 hc        1 MOL     -0.005220
    163 N14        -5.0350   -0.5550    2.7050 n         1 MOL     -0.020319
    164 C55        -5.9840   -0.0940    3.6810 c3        1 MOL     -0.267905
    165 H73        -6.9890   -0.1440    3.2620 h1        1 MOL      0.089240
    166 H74        -5.9300   -0.7250    4.5680 h1        1 MOL      0.089240
    167 H75        -5.7550    0.9370    3.9520 h1        1 MOL      0.089240
    168 H76        -4.8730   -0.0390    1.8560 hn        1 MOL      0.116174
    169 Ca1         1.9420    0.2410   -0.9020 Ca        1 MOL      1.717686
@<TRIPOS>BOND
     1    1    2 1   
     2    1    4 1   
     3    1    5 1   
     4    1    6 1   
     5    2    3 2   
     6    2    7 1   
     7    7    8 1   
     8    7   15 1   
     9    8    9 1   
    10    8   11 1   
    11    8   16 1   
    12    9   10 2   
    13    9   19 1   
    14   11   12 1   
    15   11   17 1   
    16   11   18 1   
    17   12   13 1   
    18   12   14 1   
    19   19   20 1   
    20   19   24 1   
    21   20   21 1   
    22   20   23 1   
    23   20   25 1   
    24   21   22 2   
    25   21   29 1   
    26   23   26 1   
    27   23   27 1   
    28   23   28 1   
    29   29   30 1   
    30   29   37 1   
    31   30   31 1   
    32   30   33 1   
    33   30   38 1   
    34   31   32 2   
    35   31   41 1   
    36   33   34 1   
    37   33   39 1   
    38   33   40 1   
    39   34   35 1   
    40   34   36 1   
    41   41   42 1   
    42   41   45 1   
    43   42   43 1   
    44   42   46 1   
    45   42   47 1   
    46   43   44 2   
    47   43   48 1   
    48   48   49 1   
    49   48   56 1   
    50   49   50 1   
    51   49   52 1   
    52   49   57 1   
    53   50   51 2   
    54   50   62 1   
    55   52   53 1   
    56   52   58 1   
    57   52   59 1   
    58   53   54 1   
    59   53   55 2   
    60   54   60 1   
    61   54   61 1   
    62   62   63 1   
    63   62   66 1   
    64   63   64 1   
    65   63   67 1   
    66   63   68 1   
    67   64   65 2   
    68   64   69 1   
    69   69   70 1   
    70   69   76 1   
    71   70   71 1   
    72   70   73 1   
    73   70   77 1   
    74   71   72 2   
    75   71   83 1   
    76   73   74 1   
    77   73   75 1   
    78   73   78 1   
    79   74   80 1   
    80   74   81 1   
    81   74   82 1   
    82   75   79 1   
    83   83   84 1   
    84   83   91 1   
    85   84   85 1   
    86   84   87 1   
    87   84   92 1   
    88   85   86 2   
    89   85  102 1   
    90   87   88 1   
    91   87   89 1   
    92   87   93 1   
    93   88   90 1   
    94   88   94 1   
    95   88   95 1   
    96   89   96 1   
    97   89   97 1   
    98   89   98 1   
    99   90   99 1   
   100   90  100 1   
   101   90  101 1   
   102  102  103 1   
   103  102  110 1   
   104  103  104 1   
   105  103  106 1   
   106  103  111 1   
   107  104  105 2   
   108  104  114 1   
   109  106  107 1   
   110  106  112 1   
   111  106  113 1   
   112  107  108 1   
   113  107  109 1   
   114  114  115 1   
   115  114  125 1   
   116  115  116 1   
   117  115  118 1   
   118  115  126 1   
   119  116  117 2   
   120  116  134 1   
   121  118  119 1   
   122  118  127 1   
   123  118  128 1   
   124  119  120 ar  
   125  119  121 ar  
   126  120  122 ar  
   127  120  129 1   
   128  121  123 ar  
   129  121  130 1   
   130  122  124 ar  
   131  122  131 1   
   132  123  124 ar  
   133  123  132 1   
   134  124  133 1   
   135  134  135 1   
   136  134  140 1   
   137  135  136 1   
   138  135  138 1   
   139  135  141 1   
   140  136  137 2   
   141  136  148 1   
   142  138  139 1   
   143  138  142 1   
   144  138  143 1   
   145  139  140 1   
   146  139  144 1   
   147  139  145 1   
   148  140  146 1   
   149  140  147 1   
   150  148  149 1   
   151  148  157 1   
   152  149  150 1   
   153  149  152 1   
   154  149  158 1   
   155  150  151 2   
   156  150  163 1   
   157  152  153 1   
   158  152  159 1   
   159  152  160 1   
   160  153  154 1   
   161  153  161 1   
   162  153  162 1   
   163  154  155 1   
   164  154  156 1   
   165  163  164 1   
   166  163  168 1   
   167  164  165 1   
   168  164  166 1   
   169  164  167 1   
@<TRIPOS>SUBSTRUCTURE
     1 MOL         1 TEMP              0 ****  ****    0 ROOT
