@<TRIPOS>MOLECULE
MOL
  179   176     1     0     0
SMALL
resp


@<TRIPOS>ATOM
      1 C1          0.3110   -5.0760    4.2300 c3        1 MOL     -0.527461
      2 C2          0.8230   -4.3000    2.9870 c         1 MOL      0.619530
      3 O1          0.3810   -4.4720    1.8350 o         1 MOL     -0.567795
      4 H1         -0.5180   -4.5300    4.6810 hc        1 MOL      0.142042
      5 H2         -0.0290   -6.0660    3.9270 hc        1 MOL      0.142042
      6 H3          1.1180   -5.1750    4.9560 hc        1 MOL      0.142042
      7 N1          1.8170   -3.3970    3.2040 n         1 MOL     -0.436733
      8 C3          2.4830   -2.6870    2.1220 c3        1 MOL      0.032719
      9 C4          3.6210   -3.5530    1.5120 c         1 MOL      0.572184
     10 O2          4.8110   -3.2300    1.6780 o         1 MOL     -0.469087
     11 C5          2.9810   -1.3670    2.6770 c3        1 MOL     -0.163491
     12 C6          3.4200   -0.4330    1.5450 c         1 MOL      0.762291
     13 O3          2.7200   -0.2890    0.4960 o         1 MOL     -0.766961
     14 O4          4.5040    0.1830    1.7300 o         1 MOL     -0.766961
     15 H4          2.1560   -3.2490    4.1390 hn        1 MOL      0.281276
     16 H5          1.7180   -2.4580    1.3850 h1        1 MOL      0.104322
     17 H6          3.7850   -1.5180    3.3910 hc        1 MOL      0.064047
     18 H7          2.1710   -0.8410    3.1750 hc        1 MOL      0.064047
     19 N2          3.2130   -4.6640    0.8080 n         1 MOL     -0.660049
     20 C7          4.1510   -5.6080    0.1340 c3        1 MOL      0.092691
     21 C8          4.8420   -4.9760   -1.0480 c         1 MOL      0.397349
     22 O5          5.9010   -5.4520   -1.4260 o         1 MOL     -0.551744
     23 C9          3.5120   -6.8840   -0.4150 c3        1 MOL     -0.137441
     24 C10         2.6380   -7.5860    0.5980 c3        1 MOL      0.219324
     25 C11         1.9720   -8.8330   -0.0050 c3        1 MOL      0.018051
     26 C12         1.0710   -9.5840    0.9490 c3        1 MOL     -0.104878
     27 N3         -0.0800   -8.7320    1.4570 n4        1 MOL     -0.351957
     28 H8          2.2320   -4.8700    0.6940 hn        1 MOL      0.406458
     29 H9          4.9240   -5.9040    0.8430 h1        1 MOL      0.100032
     30 H10         4.3090   -7.5350   -0.7770 hc        1 MOL      0.047726
     31 H11         2.8890   -6.6440   -1.2810 hc        1 MOL      0.047726
     32 H12         1.9010   -6.8560    0.9380 hc        1 MOL     -0.067977
     33 H13         3.1270   -7.9130    1.5210 hc        1 MOL     -0.067977
     34 H14         2.6580   -9.5770   -0.3960 hc        1 MOL      0.037033
     35 H15         1.3370   -8.4530   -0.8030 hc        1 MOL      0.037033
     36 H16         1.6560   -9.8140    1.8390 hx        1 MOL      0.128717
     37 H17         0.7180  -10.5120    0.5000 hx        1 MOL      0.128717
     38 H18         0.2010   -7.9580    2.0560 hn        1 MOL      0.323472
     39 H19        -0.6130   -8.3590    0.6870 hn        1 MOL      0.323472
     40 H20        -0.7760   -9.2140    2.0050 hn        1 MOL      0.323472
     41 N4          4.3560   -3.8740   -1.5960 n         1 MOL     -0.173083
     42 C13         4.9920   -3.1390   -2.7440 c3        1 MOL      0.008318
     43 C14         6.0430   -2.1540   -2.2270 c         1 MOL      0.434458
     44 O6          6.8940   -1.7760   -2.9850 o         1 MOL     -0.517755
     45 C15         3.9490   -2.4270   -3.5390 c3        1 MOL     -0.382799
     46 C16         3.0010   -1.5030   -2.7880 c         1 MOL      0.769367
     47 O7          3.0570   -0.3000   -3.0940 o         1 MOL     -0.689446
     48 O8          2.2700   -2.0350   -1.9630 o         1 MOL     -0.689446
     49 H21         3.5310   -3.4860   -1.1590 hn        1 MOL      0.161429
     50 H22         5.4670   -3.9150   -3.3390 h1        1 MOL      0.112804
     51 H23         3.2690   -3.2080   -3.8920 hc        1 MOL      0.094143
     52 H24         4.4800   -1.8090   -4.2620 hc        1 MOL      0.094143
     53 N5          6.0110   -1.8340   -0.8940 n         1 MOL     -0.019373
     54 C17         6.8910   -1.0460   -0.0320 c3        1 MOL     -0.503968
     55 C18         6.8970    0.5000   -0.2070 c         1 MOL      0.657349
     56 O9          7.8660    1.1510    0.2310 o         1 MOL     -0.596532
     57 H25         5.2180   -2.2480   -0.4360 hn        1 MOL      0.131335
     58 H26         7.8880   -1.3530   -0.3480 h1        1 MOL      0.189560
     59 H27         6.6820   -1.0910    1.0390 h1        1 MOL      0.189560
     60 N6          5.9000    1.0600   -0.8570 n         1 MOL     -0.283677
     61 C19         5.7900    2.4420   -1.2200 c3        1 MOL     -0.027681
     62 C20         5.2320    3.3750   -0.1310 c         1 MOL      0.363803
     63 O10         5.2510    4.5850   -0.3000 o         1 MOL     -0.474729
     64 C21         4.9720    2.5720   -2.4610 c3        1 MOL     -0.359708
     65 C22         3.4740    2.7270   -2.2120 c         1 MOL      0.554579
     66 N7          2.8690    3.5940   -2.9300 n         1 MOL     -0.572547
     67 O11         2.8270    2.0440   -1.4320 o         1 MOL     -0.524144
     68 H28         5.0780    0.4960   -1.0160 hn        1 MOL      0.193409
     69 H29         6.8120    2.7930   -1.3710 h1        1 MOL      0.132061
     70 H30         5.1970    1.6920   -3.0770 hc        1 MOL      0.140159
     71 H31         5.4400    3.3650   -3.0360 hc        1 MOL      0.140159
     72 H32         3.4340    4.0970   -3.5940 hn        1 MOL      0.313446
     73 H33         1.9140    3.8370   -2.6860 hn        1 MOL      0.313446
     74 N8          4.8900    2.7740    1.0280 n         1 MOL     -0.295657
     75 C23         4.5430    3.4120    2.3030 c3        1 MOL     -0.218725
     76 C24         3.1220    3.9520    2.4540 c         1 MOL      0.451175
     77 O12         2.8890    4.4820    3.5330 o         1 MOL     -0.551662
     78 H34         4.8680    1.7550    1.0610 hn        1 MOL      0.395905
     79 H35         5.3110    4.1750    2.4910 h1        1 MOL      0.135737
     80 H36         4.7050    2.6620    3.0850 h1        1 MOL      0.135737
     81 N9          2.3540    3.9170    1.3550 n         1 MOL     -0.035055
     82 C25         0.9900    4.2070    1.3380 c3        1 MOL      0.272565
     83 C26         0.0830    3.0000    1.1710 c         1 MOL      0.351045
     84 O13         0.4220    2.0820    0.4170 o         1 MOL     -0.603850
     85 C27         0.7920    5.1780    0.1980 c3        1 MOL     -0.015036
     86 C28         1.6050    6.4490    0.3160 ca        1 MOL      0.020094
     87 C29         2.6040    6.6860   -0.6650 ca        1 MOL     -0.253751
     88 C30         1.3840    7.3590    1.3850 ca        1 MOL     -0.253751
     89 C31         3.2170    7.9780   -0.7300 ca        1 MOL     -0.017550
     90 C32         2.0300    8.6450    1.2560 ca        1 MOL     -0.017550
     91 C33         2.8000    8.9520    0.1030 ca        1 MOL      0.060449
     92 O14         3.5570   10.1130   -0.0670 oh        1 MOL     -0.450327
     93 H37         2.6300    3.4380    0.5060 hn        1 MOL      0.079810
     94 H38         0.6940    4.6730    2.2800 h1        1 MOL     -0.029301
     95 H39        -0.2380    5.5270    0.1730 hc        1 MOL      0.013521
     96 H40         1.1370    4.7020   -0.7220 hc        1 MOL      0.013521
     97 H41         2.7030    6.0480   -1.5400 ha        1 MOL      0.142671
     98 H42         0.6620    7.1930    2.1680 ha        1 MOL      0.142671
     99 H43         3.8720    8.2480   -1.5480 ha        1 MOL      0.092654
    100 H44         1.7880    9.3570    2.0350 ha        1 MOL      0.092654
    101 H45         3.4900   10.7290    0.6630 ho        1 MOL      0.357587
    102 N10        -1.1710    2.9560    1.6960 n         1 MOL     -0.438344
    103 C34        -2.1930    1.8930    1.6590 c3        1 MOL      0.024892
    104 C35        -3.4330    2.7610    1.3130 c         1 MOL      0.415986
    105 O15        -3.8440    3.7430    1.9940 o         1 MOL     -0.497939
    106 C36        -2.2780    1.2710    3.0480 c3        1 MOL      0.054215
    107 C37        -1.2350    0.1780    3.0560 c3        1 MOL      0.022876
    108 C38        -3.6550    0.6350    3.3170 c3        1 MOL     -0.074116
    109 C39        -0.8670   -0.4390    4.4100 c3        1 MOL     -0.025876
    110 H46        -1.3990    3.8240    2.1640 hn        1 MOL      0.283898
    111 H47        -1.8930    1.1270    0.9510 h1        1 MOL      0.125320
    112 H48        -2.0690    2.0430    3.7910 hc        1 MOL      0.037892
    113 H49        -0.2810    0.6260    2.8080 hc        1 MOL      0.013211
    114 H50        -1.3900   -0.5810    2.2910 hc        1 MOL      0.013211
    115 H51        -4.4640    1.3750    3.2950 hc        1 MOL      0.009902
    116 H52        -3.8830   -0.2130    2.6720 hc        1 MOL      0.009902
    117 H53        -3.6480    0.2790    4.3450 hc        1 MOL      0.009902
    118 H54         0.0070   -1.0820    4.2790 hc        1 MOL      0.003674
    119 H55        -0.5850    0.3050    5.1600 hc        1 MOL      0.003674
    120 H56        -1.5810   -1.1240    4.8480 hc        1 MOL      0.003674
    121 N11        -4.2030    2.3210    0.2400 n         1 MOL     -0.241032
    122 C40        -5.5210    2.8080   -0.2620 c3        1 MOL     -0.009663
    123 C41        -6.7410    2.0410    0.2630 c         1 MOL      0.517205
    124 O16        -6.5030    0.9560    0.8130 o         1 MOL     -0.431548
    125 C42        -5.5190    2.8420   -1.7820 c3        1 MOL     -0.041914
    126 O17        -5.5880    1.5420   -2.2190 oh        1 MOL     -0.443688
    127 H57        -3.7590    1.6560   -0.3730 hn        1 MOL      0.248673
    128 H58        -5.5190    3.8320    0.1040 h1        1 MOL      0.078827
    129 H59        -4.6480    3.4160   -2.1120 h1        1 MOL      0.058785
    130 H60        -6.4500    3.2230   -2.2000 h1        1 MOL      0.058785
    131 H61        -5.8690    1.4820   -3.1320 ho        1 MOL      0.395716
    132 N12        -8.0260    2.4680    0.1350 n         1 MOL     -0.470626
    133 C43        -9.2310    1.6410    0.4320 c3        1 MOL      0.135789
    134 C44        -9.1740    0.2990   -0.3220 c         1 MOL      0.502852
    135 O18        -9.4850   -0.7400    0.3580 o         1 MOL     -0.535281
    136 C45       -10.4490    2.5100    0.0870 c3        1 MOL     -0.224618
    137 H62        -8.2080    3.3660   -0.2980 hn        1 MOL      0.273495
    138 H63        -9.2070    1.3860    1.4890 h1        1 MOL      0.087684
    139 H64       -10.2560    3.4770    0.5590 hc        1 MOL      0.074300
    140 H65       -10.6380    2.7290   -0.9670 hc        1 MOL      0.074300
    141 H66       -11.3890    2.1270    0.4790 hc        1 MOL      0.074300
    142 N13        -8.7820    0.2110   -1.5980 n         1 MOL     -0.502978
    143 C46        -8.8140   -1.0930   -2.3110 c3        1 MOL      0.258818
    144 C47        -7.5890   -2.0110   -1.9780 c         1 MOL      0.205875
    145 O19        -7.6970   -3.2610   -2.1350 o         1 MOL     -0.482184
    146 C48        -8.7760   -0.6720   -3.7790 c3        1 MOL     -0.279548
    147 H67        -8.4530    0.9420   -2.2060 hn        1 MOL      0.297289
    148 H68        -9.7030   -1.7110   -2.1740 h1        1 MOL      0.088405
    149 H69        -8.5570   -1.5840   -4.3210 hc        1 MOL      0.074239
    150 H70        -9.7010   -0.2430   -4.1630 hc        1 MOL      0.074239
    151 H71        -7.9230   -0.0170   -3.9300 hc        1 MOL      0.074239
    152 N14        -6.4510   -1.4700   -1.5000 n         1 MOL      0.059151
    153 C49        -5.3240   -2.2730   -1.0530 c3        1 MOL     -0.095135
    154 C50        -5.6230   -2.9360    0.2340 c         1 MOL      0.413332
    155 O20        -5.3500   -4.1270    0.4510 o         1 MOL     -0.531387
    156 C51        -4.1140   -1.3490   -1.1140 c3        1 MOL      0.075430
    157 C52        -2.8790   -1.9370   -0.4670 c3        1 MOL      0.117085
    158 C53        -1.5540   -1.2220   -0.9680 c         1 MOL      0.587080
    159 O21        -0.4960   -1.8700   -0.7820 o         1 MOL     -0.711061
    160 O22        -1.6270   -0.0010   -1.3000 o         1 MOL     -0.711061
    161 H72        -6.3520   -0.4740   -1.5140 hn        1 MOL     -0.024583
    162 H73        -5.1390   -3.0310   -1.8100 h1        1 MOL      0.090178
    163 H74        -4.4350   -0.4300   -0.6240 hc        1 MOL     -0.056360
    164 H75        -3.9510   -1.0840   -2.1590 hc        1 MOL     -0.056360
    165 H76        -2.8750   -2.9950   -0.7150 hc        1 MOL     -0.029304
    166 H77        -2.9960   -1.7940    0.6020 hc        1 MOL     -0.029304
    167 N15        -6.3610   -2.1460    1.1130 n         1 MOL     -0.020632
    168 C54        -6.7440   -2.7380    2.4170 c3        1 MOL     -0.318078
    169 H78        -7.6090   -2.2060    2.8160 h1        1 MOL      0.113575
    170 H79        -6.9960   -3.7890    2.2810 h1        1 MOL      0.113575
    171 H80        -5.9110   -2.6510    3.1150 h1        1 MOL      0.113575
    172 H81        -6.5440   -1.1810    0.9010 hn        1 MOL      0.124472
    173 Ca1         1.0030    0.1460   -1.2580 Ca        1 MOL      1.712713
    174 O23         0.2190   -0.6470   -3.8290 oh        1 MOL     -0.819990
    175 H82         0.6010   -0.8790   -4.6720 ho        1 MOL      0.401216
    176 H83        -0.4580   -1.3100   -3.6800 ho        1 MOL      0.401216
    177 O24        -0.1220    2.3100   -2.5060 oh        1 MOL     -0.819990
    178 H84        -0.2290    2.8940   -3.2690 ho        1 MOL      0.401216
    179 H85        -1.0100    1.9650   -2.3500 ho        1 MOL      0.401216
@<TRIPOS>BOND
     1    1    2 1   
     2    1    4 1   
     3    1    5 1   
     4    1    6 1   
     5    2    3 2   
     6    2    7 1   
     7    7    8 1   
     8    7   15 1   
     9    8    9 1   
    10    8   11 1   
    11    8   16 1   
    12    9   10 2   
    13    9   19 1   
    14   11   12 1   
    15   11   17 1   
    16   11   18 1   
    17   12   13 1   
    18   12   14 1   
    19   19   20 1   
    20   19   28 1   
    21   20   21 1   
    22   20   23 1   
    23   20   29 1   
    24   21   22 2   
    25   21   41 1   
    26   23   24 1   
    27   23   30 1   
    28   23   31 1   
    29   24   25 1   
    30   24   32 1   
    31   24   33 1   
    32   25   26 1   
    33   25   34 1   
    34   25   35 1   
    35   26   27 1   
    36   26   36 1   
    37   26   37 1   
    38   27   38 1   
    39   27   39 1   
    40   27   40 1   
    41   41   42 1   
    42   41   49 1   
    43   42   43 1   
    44   42   45 1   
    45   42   50 1   
    46   43   44 2   
    47   43   53 1   
    48   45   46 1   
    49   45   51 1   
    50   45   52 1   
    51   46   47 1   
    52   46   48 1   
    53   53   54 1   
    54   53   57 1   
    55   54   55 1   
    56   54   58 1   
    57   54   59 1   
    58   55   56 2   
    59   55   60 1   
    60   60   61 1   
    61   60   68 1   
    62   61   62 1   
    63   61   64 1   
    64   61   69 1   
    65   62   63 2   
    66   62   74 1   
    67   64   65 1   
    68   64   70 1   
    69   64   71 1   
    70   65   66 1   
    71   65   67 2   
    72   66   72 1   
    73   66   73 1   
    74   74   75 1   
    75   74   78 1   
    76   75   76 1   
    77   75   79 1   
    78   75   80 1   
    79   76   77 2   
    80   76   81 1   
    81   81   82 1   
    82   81   93 1   
    83   82   83 1   
    84   82   85 1   
    85   82   94 1   
    86   83   84 2   
    87   83  102 1   
    88   85   86 1   
    89   85   95 1   
    90   85   96 1   
    91   86   87 ar  
    92   86   88 ar  
    93   87   89 ar  
    94   87   97 1   
    95   88   90 ar  
    96   88   98 1   
    97   89   91 ar  
    98   89   99 1   
    99   90   91 ar  
   100   90  100 1   
   101   91   92 1   
   102   92  101 1   
   103  102  103 1   
   104  102  110 1   
   105  103  104 1   
   106  103  106 1   
   107  103  111 1   
   108  104  105 2   
   109  104  121 1   
   110  106  107 1   
   111  106  108 1   
   112  106  112 1   
   113  107  109 1   
   114  107  113 1   
   115  107  114 1   
   116  108  115 1   
   117  108  116 1   
   118  108  117 1   
   119  109  118 1   
   120  109  119 1   
   121  109  120 1   
   122  121  122 1   
   123  121  127 1   
   124  122  123 1   
   125  122  125 1   
   126  122  128 1   
   127  123  124 2   
   128  123  132 1   
   129  125  126 1   
   130  125  129 1   
   131  125  130 1   
   132  126  131 1   
   133  132  133 1   
   134  132  137 1   
   135  133  134 1   
   136  133  136 1   
   137  133  138 1   
   138  134  135 2   
   139  134  142 1   
   140  136  139 1   
   141  136  140 1   
   142  136  141 1   
   143  142  143 1   
   144  142  147 1   
   145  143  144 1   
   146  143  146 1   
   147  143  148 1   
   148  144  145 2   
   149  144  152 1   
   150  146  149 1   
   151  146  150 1   
   152  146  151 1   
   153  152  153 1   
   154  152  161 1   
   155  153  154 1   
   156  153  156 1   
   157  153  162 1   
   158  154  155 2   
   159  154  167 1   
   160  156  157 1   
   161  156  163 1   
   162  156  164 1   
   163  157  158 1   
   164  157  165 1   
   165  157  166 1   
   166  158  159 1   
   167  158  160 1   
   168  167  168 1   
   169  167  172 1   
   170  168  169 1   
   171  168  170 1   
   172  168  171 1   
   173  174  175 1   
   174  174  176 1   
   175  177  178 1   
   176  177  179 1   
@<TRIPOS>SUBSTRUCTURE
     1 MOL         1 TEMP              0 ****  ****    0 ROOT
