@<TRIPOS>MOLECULE
MOL
  175   173     1     0     0
SMALL
resp


@<TRIPOS>ATOM
      1 C1          0.2960    4.4460    5.4780 c3        1 MOL     -0.306723
      2 C2         -0.3600    4.2640    4.0650 c         1 MOL      0.697311
      3 O1          0.3310    4.3200    3.0180 o         1 MOL     -0.582496
      4 H1          1.3680    4.6080    5.3630 hc        1 MOL      0.074874
      5 H2         -0.1500    5.3060    5.9770 hc        1 MOL      0.074874
      6 H3          0.1260    3.5500    6.0760 hc        1 MOL      0.074874
      7 N1         -1.6100    3.8220    3.9820 n         1 MOL     -0.677345
      8 C3         -2.2680    3.5040    2.7440 c3        1 MOL      0.339354
      9 C4         -2.4100    4.7140    1.8920 c         1 MOL      0.505738
     10 O2         -2.8060    5.7750    2.3670 o         1 MOL     -0.595599
     11 C5         -3.6580    2.8670    3.0810 c3        1 MOL     -0.364692
     12 C6         -4.2010    2.0680    1.8770 c         1 MOL      0.856493
     13 O3         -3.6780    2.1070    0.7440 o         1 MOL     -0.716437
     14 O4         -5.3260    1.5670    2.0430 o         1 MOL     -0.716437
     15 H4         -2.0960    3.7780    4.8710 hn        1 MOL      0.313846
     16 H5         -1.6330    2.7400    2.3020 h1        1 MOL      0.106699
     17 H6         -4.3550    3.6530    3.3840 hc        1 MOL      0.074530
     18 H7         -3.5670    2.2250    3.9470 hc        1 MOL      0.074530
     19 N2         -2.1590    4.5440    0.5990 n         1 MOL     -0.414508
     20 C7         -2.3760    5.4640   -0.4790 c3        1 MOL      0.408467
     21 C8         -3.3580    5.1640   -1.6240 c         1 MOL      0.356939
     22 O5         -3.4210    5.9230   -2.5560 o         1 MOL     -0.521901
     23 C9         -1.0180    5.7630   -1.1470 c3        1 MOL     -0.296255
     24 H8         -1.8470    3.6160    0.3380 hn        1 MOL      0.204337
     25 H9         -2.7670    6.3990   -0.0890 h1        1 MOL     -0.026222
     26 H10        -0.7190    4.9800   -1.8460 hc        1 MOL      0.069568
     27 H11        -1.0290    6.7020   -1.7080 hc        1 MOL      0.069568
     28 H12        -0.2720    5.9960   -0.3870 hc        1 MOL      0.069568
     29 N3         -3.9870    3.9380   -1.5720 n         1 MOL     -0.267740
     30 C10        -4.7670    3.4040   -2.6670 c3        1 MOL     -0.003941
     31 C11        -5.9690    2.5520   -2.3200 c         1 MOL      0.513142
     32 O6         -6.7660    2.3010   -3.2160 o         1 MOL     -0.589532
     33 C12        -3.8590    2.6530   -3.6880 c3        1 MOL     -0.181502
     34 C13        -3.1420    1.4030   -3.1340 c         1 MOL      0.841806
     35 O7         -2.3060    0.9000   -3.8670 o         1 MOL     -0.736545
     36 O8         -3.4370    0.8900   -2.0370 o         1 MOL     -0.736545
     37 H13        -4.0040    3.5270   -0.6490 hn        1 MOL      0.115307
     38 H14        -5.2640    4.2780   -3.1010 h1        1 MOL      0.063575
     39 H15        -3.1570    3.3980   -4.0370 hc        1 MOL      0.050038
     40 H16        -4.4050    2.2440   -4.5400 hc        1 MOL      0.050038
     41 N4         -6.1190    2.0540   -1.1400 n         1 MOL     -0.273045
     42 C14        -7.3950    1.4110   -0.8010 c3        1 MOL     -0.327652
     43 C15        -7.4130   -0.0760   -1.1670 c         1 MOL      0.611330
     44 O9         -8.3590   -0.7530   -0.9240 o         1 MOL     -0.643095
     45 H17        -5.3970    2.2560   -0.4700 hn        1 MOL      0.263852
     46 H18        -8.2190    1.8700   -1.3510 h1        1 MOL      0.151678
     47 H19        -7.6360    1.5030    0.2580 h1        1 MOL      0.151678
     48 N5         -6.3460   -0.6650   -1.6140 n         1 MOL     -0.260213
     49 C16        -6.2320   -2.0280   -2.2290 c3        1 MOL      0.119790
     50 C17        -6.2410   -3.2200   -1.2570 c         1 MOL      0.371339
     51 O10        -6.2110   -4.3840   -1.6350 o         1 MOL     -0.497810
     52 C18        -5.0730   -2.0390   -3.1960 c3        1 MOL     -0.310606
     53 C19        -3.6780   -2.2280   -2.6010 c         1 MOL      0.664626
     54 N6         -2.7150   -2.7490   -3.3580 n         1 MOL     -0.519741
     55 O11        -3.4160   -2.0860   -1.3850 o         1 MOL     -0.754635
     56 H20        -5.5470   -0.0600   -1.7550 hn        1 MOL      0.169681
     57 H21        -7.0700   -2.1860   -2.9060 h1        1 MOL      0.085627
     58 H22        -4.9380   -1.1080   -3.7540 hc        1 MOL      0.091149
     59 H23        -5.3730   -2.8660   -3.8410 hc        1 MOL      0.091149
     60 H24        -2.9900   -3.2700   -4.1760 hn        1 MOL      0.288217
     61 H25        -1.7850   -2.6680   -2.9810 hn        1 MOL      0.288217
     62 N7         -6.2500   -2.9070    0.0700 n         1 MOL     -0.192939
     63 C20        -6.3080   -3.8820    1.1590 c3        1 MOL     -0.161388
     64 C21        -4.9570   -4.4830    1.6890 c         1 MOL      0.497238
     65 O12        -5.0460   -5.4310    2.4610 o         1 MOL     -0.577090
     66 H26        -6.1120   -1.9400    0.3320 hn        1 MOL      0.200430
     67 H27        -6.8920   -4.7720    0.9290 h1        1 MOL      0.099029
     68 H28        -6.9090   -3.4670    1.9770 h1        1 MOL      0.099029
     69 N8         -3.7780   -3.9840    1.3120 n         1 MOL     -0.378445
     70 C22        -2.4750   -4.5310    1.6230 c3        1 MOL     -0.069884
     71 C23        -1.4550   -3.3800    1.8070 c         1 MOL      0.473934
     72 O13        -1.5750   -2.3640    1.1170 o         1 MOL     -0.576782
     73 C24        -1.8720   -5.3510    0.4670 c3        1 MOL      0.446529
     74 C25        -2.5360   -6.7080    0.3410 c3        1 MOL     -0.382543
     75 O14        -2.1420   -4.7320   -0.8220 oh        1 MOL     -0.608046
     76 H29        -3.9310   -3.3090    0.5730 hn        1 MOL      0.439941
     77 H30        -2.4650   -5.1230    2.5480 h1        1 MOL      0.080751
     78 H31        -0.8000   -5.4680    0.6390 h1        1 MOL      0.001531
     79 H32        -1.8300   -3.8340   -0.8880 ho        1 MOL      0.354632
     80 H33        -3.6170   -6.6830    0.2460 hc        1 MOL      0.092912
     81 H34        -2.0980   -7.3590   -0.4130 hc        1 MOL      0.092912
     82 H35        -2.1450   -7.2450    1.2080 hc        1 MOL      0.092912
     83 N9         -0.3440   -3.6270    2.5360 n         1 MOL     -0.432616
     84 C26         0.8240   -2.7570    2.3750 c3        1 MOL      0.075779
     85 C27         1.6020   -3.0980    1.1050 c         1 MOL      0.355558
     86 O15         1.9390   -4.2660    0.8020 o         1 MOL     -0.561294
     87 C28         1.7880   -2.8530    3.5740 c3        1 MOL      0.021304
     88 C29         1.1350   -2.3690    4.8700 c3        1 MOL      0.138580
     89 C30         3.1810   -2.2030    3.2360 c3        1 MOL     -0.139987
     90 C31         1.7390   -2.8960    6.2460 c3        1 MOL     -0.200070
     91 H36        -0.2090   -4.4730    3.0710 hn        1 MOL      0.277774
     92 H37         0.5740   -1.7020    2.2850 h1        1 MOL      0.073489
     93 H38         1.9610   -3.9320    3.6770 hc        1 MOL     -0.007296
     94 H39         0.0800   -2.6120    4.7750 hc        1 MOL     -0.033195
     95 H40         1.0590   -1.2770    4.8730 hc        1 MOL     -0.033195
     96 H41         2.9930   -1.2100    2.8300 hc        1 MOL      0.020660
     97 H42         3.8110   -2.1940    4.1310 hc        1 MOL      0.020660
     98 H43         3.7600   -2.6930    2.4550 hc        1 MOL      0.020660
     99 H44         2.6830   -2.3620    6.3570 hc        1 MOL      0.044875
    100 H45         1.0550   -2.6280    7.0520 hc        1 MOL      0.044875
    101 H46         1.7380   -3.9830    6.2720 hc        1 MOL      0.044875
    102 N10         1.8000   -2.0760    0.2580 n         1 MOL     -0.132211
    103 C32         2.5850   -2.1700   -0.9760 c3        1 MOL      0.034054
    104 C33         3.9960   -1.5840   -0.6800 c         1 MOL      0.350161
    105 O16         4.2760   -0.9460    0.3430 o         1 MOL     -0.253164
    106 C34         1.9090   -1.4910   -2.1610 c3        1 MOL     -0.295485
    107 C35         0.4550   -1.9120   -2.4080 c         1 MOL      0.725908
    108 O17        -0.5260   -1.4230   -1.7570 o         1 MOL     -0.660797
    109 O18         0.2580   -2.6800   -3.3710 o         1 MOL     -0.660797
    110 H47         1.4780   -1.1530    0.5280 hn        1 MOL      0.327013
    111 H48         2.8020   -3.1910   -1.2810 h1        1 MOL      0.074987
    112 H49         2.4940   -1.6180   -3.0740 hc        1 MOL      0.078749
    113 H50         1.9120   -0.4240   -1.9220 hc        1 MOL      0.078749
    114 N11         4.9700   -1.7450   -1.5980 n         1 MOL     -0.573014
    115 C36         6.3640   -1.3970   -1.3430 c3        1 MOL      0.456233
    116 C37         6.6080    0.1550   -1.1510 c         1 MOL      0.259446
    117 O19         7.3070    0.5410   -0.1830 o         1 MOL     -0.519401
    118 C38         7.3660   -1.9160   -2.4080 c3        1 MOL     -0.333909
    119 C39         8.8870   -1.7600   -2.0530 ca        1 MOL      0.031019
    120 C40         9.5070   -2.5280   -1.0480 ca        1 MOL     -0.035541
    121 C41         9.6690   -0.8560   -2.7630 ca        1 MOL     -0.035541
    122 C42        10.8850   -2.4010   -0.7480 ca        1 MOL     -0.260398
    123 C43        11.1090   -0.8330   -2.6070 ca        1 MOL     -0.260398
    124 C44        11.6780   -1.5660   -1.5260 ca        1 MOL      0.040995
    125 H51         4.8700   -2.3910   -2.3720 hn        1 MOL      0.314212
    126 H52         6.6460   -1.8170   -0.3800 h1        1 MOL     -0.011631
    127 H53         7.2500   -1.2820   -3.2840 hc        1 MOL      0.090696
    128 H54         7.1750   -2.9640   -2.6130 hc        1 MOL      0.090696
    129 H55         8.9930   -3.3050   -0.4890 ha        1 MOL      0.099183
    130 H56         9.2620   -0.2120   -3.5230 ha        1 MOL      0.099183
    131 H57        11.3450   -2.9560    0.0630 ha        1 MOL      0.142160
    132 H58        11.7610   -0.1350   -3.1060 ha        1 MOL      0.142160
    133 H59        12.7580   -1.5700   -1.4660 ha        1 MOL      0.063690
    134 N12         6.0530    1.0180   -1.9990 n         1 MOL     -0.005845
    135 C45         6.1430    2.4710   -1.8190 c3        1 MOL     -0.143678
    136 C46         5.4590    2.9560   -0.5240 c         1 MOL      0.418075
    137 O20         5.5060    4.1570   -0.2880 o         1 MOL     -0.536968
    138 C47         5.5660    3.1530   -3.0940 c3        1 MOL     -0.064818
    139 C48         5.4820    1.9770   -4.0190 c3        1 MOL      0.061098
    140 C49         5.1530    0.7770   -3.1200 c3        1 MOL     -0.156039
    141 H60         7.2150    2.6440   -1.7650 h1        1 MOL      0.113943
    142 H61         4.5800    3.5660   -2.8760 hc        1 MOL      0.061876
    143 H62         6.2000    3.9520   -3.4930 hc        1 MOL      0.061876
    144 H63         4.7600    2.2550   -4.7870 hc        1 MOL      0.002695
    145 H64         6.3950    1.7690   -4.5760 hc        1 MOL      0.002695
    146 H65         4.1200    0.7950   -2.7790 h1        1 MOL      0.075718
    147 H66         5.3160   -0.1380   -3.6920 h1        1 MOL      0.075718
    148 N13         4.7520    2.1280    0.1960 n         1 MOL     -0.171980
    149 C50         4.1390    2.4630    1.5170 c3        1 MOL     -0.015668
    150 C51         5.0310    1.9400    2.6340 c         1 MOL      0.416180
    151 O21         5.3180    2.7070    3.5730 o         1 MOL     -0.545307
    152 C52         2.7610    1.8200    1.4780 c3        1 MOL      0.040011
    153 C53         1.7760    2.2060    0.3300 c3        1 MOL     -0.095121
    154 C54         0.4190    1.5080    0.3080 c         1 MOL      0.571079
    155 O22        -0.5680    1.9420   -0.3500 o         1 MOL     -0.720973
    156 O23         0.2830    0.4010    0.8160 o         1 MOL     -0.720973
    157 H67         4.6070    1.1480   -0.0220 hn        1 MOL      0.181703
    158 H68         4.0520    3.5430    1.5350 h1        1 MOL      0.102350
    159 H69         2.3380    2.0830    2.4530 hc        1 MOL     -0.015975
    160 H70         2.9110    0.7800    1.1770 hc        1 MOL     -0.015975
    161 H71         2.2230    1.9450   -0.6280 hc        1 MOL      0.058153
    162 H72         1.6270    3.2800    0.3660 hc        1 MOL      0.058153
    163 N14         5.6110    0.7260    2.5160 n         1 MOL     -0.060154
    164 C55         6.4790    0.1210    3.5630 c3        1 MOL     -0.287777
    165 H73         7.5240    0.3320    3.3330 h1        1 MOL      0.109736
    166 H74         6.2290    0.5470    4.5350 h1        1 MOL      0.109736
    167 H75         6.3230   -0.9570    3.5870 h1        1 MOL      0.109736
    168 H76         5.2820    0.1540    1.7560 hn        1 MOL      0.062498
    169 Ca1        -2.0710   -0.0950   -0.2170 Ca        1 MOL      1.713239
    170 O24        -1.5570    0.3340    2.8040 oh        1 MOL     -0.742319
    171 H77        -0.6420    0.3910    2.5150 ho        1 MOL      0.344982
    172 H78        -1.5270    0.6050    3.7210 ho        1 MOL      0.344982
    173 O25        -4.1500   -0.8150    1.3240 oh        1 MOL     -0.742319
    174 H79        -4.5810   -1.4230    1.9320 ho        1 MOL      0.344982
    175 H80        -4.6220    0.0060    1.4370 ho        1 MOL      0.344982
@<TRIPOS>BOND
     1    1    2 1   
     2    1    4 1   
     3    1    5 1   
     4    1    6 1   
     5    2    3 2   
     6    2    7 1   
     7    7    8 1   
     8    7   15 1   
     9    8    9 1   
    10    8   11 1   
    11    8   16 1   
    12    9   10 2   
    13    9   19 1   
    14   11   12 1   
    15   11   17 1   
    16   11   18 1   
    17   12   13 1   
    18   12   14 1   
    19   19   20 1   
    20   19   24 1   
    21   20   21 1   
    22   20   23 1   
    23   20   25 1   
    24   21   22 2   
    25   21   29 1   
    26   23   26 1   
    27   23   27 1   
    28   23   28 1   
    29   29   30 1   
    30   29   37 1   
    31   30   31 1   
    32   30   33 1   
    33   30   38 1   
    34   31   32 2   
    35   31   41 1   
    36   33   34 1   
    37   33   39 1   
    38   33   40 1   
    39   34   35 1   
    40   34   36 1   
    41   41   42 1   
    42   41   45 1   
    43   42   43 1   
    44   42   46 1   
    45   42   47 1   
    46   43   44 2   
    47   43   48 1   
    48   48   49 1   
    49   48   56 1   
    50   49   50 1   
    51   49   52 1   
    52   49   57 1   
    53   50   51 2   
    54   50   62 1   
    55   52   53 1   
    56   52   58 1   
    57   52   59 1   
    58   53   54 1   
    59   53   55 2   
    60   54   60 1   
    61   54   61 1   
    62   62   63 1   
    63   62   66 1   
    64   63   64 1   
    65   63   67 1   
    66   63   68 1   
    67   64   65 2   
    68   64   69 1   
    69   69   70 1   
    70   69   76 1   
    71   70   71 1   
    72   70   73 1   
    73   70   77 1   
    74   71   72 2   
    75   71   83 1   
    76   73   74 1   
    77   73   75 1   
    78   73   78 1   
    79   74   80 1   
    80   74   81 1   
    81   74   82 1   
    82   75   79 1   
    83   83   84 1   
    84   83   91 1   
    85   84   85 1   
    86   84   87 1   
    87   84   92 1   
    88   85   86 2   
    89   85  102 1   
    90   87   88 1   
    91   87   89 1   
    92   87   93 1   
    93   88   90 1   
    94   88   94 1   
    95   88   95 1   
    96   89   96 1   
    97   89   97 1   
    98   89   98 1   
    99   90   99 1   
   100   90  100 1   
   101   90  101 1   
   102  102  103 1   
   103  102  110 1   
   104  103  104 1   
   105  103  106 1   
   106  103  111 1   
   107  104  105 2   
   108  104  114 1   
   109  106  107 1   
   110  106  112 1   
   111  106  113 1   
   112  107  108 1   
   113  107  109 1   
   114  114  115 1   
   115  114  125 1   
   116  115  116 1   
   117  115  118 1   
   118  115  126 1   
   119  116  117 2   
   120  116  134 1   
   121  118  119 1   
   122  118  127 1   
   123  118  128 1   
   124  119  120 ar  
   125  119  121 ar  
   126  120  122 ar  
   127  120  129 1   
   128  121  123 ar  
   129  121  130 1   
   130  122  124 ar  
   131  122  131 1   
   132  123  124 ar  
   133  123  132 1   
   134  124  133 1   
   135  134  135 1   
   136  134  140 1   
   137  135  136 1   
   138  135  138 1   
   139  135  141 1   
   140  136  137 2   
   141  136  148 1   
   142  138  139 1   
   143  138  142 1   
   144  138  143 1   
   145  139  140 1   
   146  139  144 1   
   147  139  145 1   
   148  140  146 1   
   149  140  147 1   
   150  148  149 1   
   151  148  157 1   
   152  149  150 1   
   153  149  152 1   
   154  149  158 1   
   155  150  151 2   
   156  150  163 1   
   157  152  153 1   
   158  152  159 1   
   159  152  160 1   
   160  153  154 1   
   161  153  161 1   
   162  153  162 1   
   163  154  155 1   
   164  154  156 1   
   165  163  164 1   
   166  163  168 1   
   167  164  165 1   
   168  164  166 1   
   169  164  167 1   
   170  170  171 1   
   171  170  172 1   
   172  173  174 1   
   173  173  175 1   
@<TRIPOS>SUBSTRUCTURE
     1 MOL         1 TEMP              0 ****  ****    0 ROOT
