@<TRIPOS>MOLECULE
MOL
  189   185     1     0     0
SMALL
resp


@<TRIPOS>ATOM
      1 C1         -1.0630    2.2560    6.5900 c3        1 MOL     -0.551710
      2 C2         -1.0920    2.3630    5.0830 c         1 MOL      0.766831
      3 O1         -0.6210    1.4610    4.3770 o         1 MOL     -0.574409
      4 H1         -0.9320    1.2120    6.8770 hc        1 MOL      0.141835
      5 H2         -0.2340    2.8450    6.9810 hc        1 MOL      0.141835
      6 H3         -2.0010    2.6300    6.9990 hc        1 MOL      0.141835
      7 N1         -1.7600    3.3450    4.5110 n         1 MOL     -0.647230
      8 C3         -2.2330    3.2610    3.1250 c3        1 MOL      0.394316
      9 C4         -2.0590    4.5720    2.2930 c         1 MOL      0.383008
     10 O2         -2.2640    5.6730    2.7680 o         1 MOL     -0.563472
     11 C5         -3.7380    2.8830    3.1220 c3        1 MOL     -0.185629
     12 C6         -4.2540    2.7280    1.7440 c         1 MOL      0.665047
     13 O3         -5.4980    2.9620    1.5630 o         1 MOL     -0.682103
     14 O4         -3.5890    2.2230    0.8360 o         1 MOL     -0.682103
     15 H4         -2.2540    4.0280    5.0660 hn        1 MOL      0.311564
     16 H5         -1.6080    2.5050    2.6420 h1        1 MOL     -0.089231
     17 H6         -4.2500    3.5850    3.7840 hc        1 MOL      0.018824
     18 H7         -3.7610    1.9390    3.6640 hc        1 MOL      0.018824
     19 N2         -1.7980    4.3780    0.9530 n         1 MOL     -0.003168
     20 C7         -1.7910    5.4880   -0.0060 c3        1 MOL     -0.298913
     21 C8         -2.6440    5.3460   -1.2790 c         1 MOL      0.580130
     22 O5         -2.8230    6.2760   -2.0150 o         1 MOL     -0.606671
     23 C9         -0.3380    5.7580   -0.3270 c3        1 MOL      0.338874
     24 C10         0.3330    4.6000   -1.0460 c3        1 MOL     -0.086806
     25 C11         0.5420    6.1410    0.9220 c3        1 MOL     -0.233190
     26 C12         1.7390    4.8280   -1.6550 c3        1 MOL     -0.254041
     27 H8         -1.6810    3.4390    0.6170 hn        1 MOL      0.144710
     28 H9         -2.2390    6.4190    0.3790 h1        1 MOL      0.109026
     29 H10        -0.3140    6.5850   -1.0410 hc        1 MOL     -0.068623
     30 H11        -0.3420    4.3020   -1.8440 hc        1 MOL      0.046977
     31 H12         0.4500    3.8010   -0.3170 hc        1 MOL      0.046977
     32 H13         1.4130    6.6660    0.5430 hc        1 MOL      0.032824
     33 H14        -0.0520    6.8390    1.5010 hc        1 MOL      0.032824
     34 H15         0.7480    5.2810    1.5620 hc        1 MOL      0.032824
     35 H16         2.0180    4.2280   -2.5150 hc        1 MOL      0.079422
     36 H17         1.9170    5.8610   -1.9380 hc        1 MOL      0.079422
     37 H18         2.4410    4.5920   -0.8630 hc        1 MOL      0.079422
     38 N3         -3.2280    4.2300   -1.5490 n         1 MOL     -0.283240
     39 C13        -3.9080    3.8320   -2.7790 c3        1 MOL     -0.044274
     40 C14        -5.2000    3.1160   -2.6860 c         1 MOL      0.416586
     41 O6         -5.7670    2.7210   -3.6870 o         1 MOL     -0.546377
     42 C15        -2.9250    2.9260   -3.6240 c3        1 MOL     -0.190691
     43 C16        -2.2970    1.7600   -2.8570 c         1 MOL      0.849016
     44 O7         -2.9700    1.3430   -1.9070 o         1 MOL     -0.729491
     45 O8         -1.2060    1.3170   -3.2960 o         1 MOL     -0.729491
     46 H19        -3.1920    3.5840   -0.7720 hn        1 MOL      0.187633
     47 H20        -4.0850    4.7490   -3.3310 h1        1 MOL      0.113434
     48 H21        -2.1140    3.5820   -3.9240 hc        1 MOL      0.053814
     49 H22        -3.3340    2.5580   -4.5620 hc        1 MOL      0.053814
     50 N4         -5.6820    2.6950   -1.4660 n         1 MOL     -0.148422
     51 C17        -7.0170    2.1800   -1.2130 c3        1 MOL     -0.220812
     52 C18        -7.3620    0.8060   -1.8470 c         1 MOL      0.565588
     53 O9         -8.4670    0.2850   -1.7700 o         1 MOL     -0.624771
     54 H23        -5.0800    2.8960   -0.6830 hn        1 MOL      0.145347
     55 H24        -7.7330    2.8860   -1.6400 h1        1 MOL      0.101135
     56 H25        -7.2390    2.0760   -0.1590 h1        1 MOL      0.101135
     57 N5         -6.3560    0.0510   -2.3760 n         1 MOL     -0.285957
     58 C19        -6.5280   -1.3500   -2.7810 c3        1 MOL     -0.045865
     59 C20        -6.8580   -2.4040   -1.6910 c         1 MOL      0.397078
     60 O10        -7.1380   -3.5400   -2.0100 o         1 MOL     -0.512699
     61 C21        -5.3700   -1.8510   -3.6240 c3        1 MOL     -0.200024
     62 C22        -4.0320   -1.8600   -2.8210 c         1 MOL      0.811182
     63 O11        -4.0110   -1.4970   -1.5940 o         1 MOL     -0.744911
     64 O12        -2.9970   -2.1510   -3.3860 o         1 MOL     -0.744911
     65 H26        -5.4460    0.4860   -2.3830 hn        1 MOL      0.225671
     66 H27        -7.3800   -1.3150   -3.4630 h1        1 MOL      0.097453
     67 H28        -5.2560   -1.1860   -4.4870 hc        1 MOL      0.057671
     68 H29        -5.6100   -2.8180   -4.0500 hc        1 MOL      0.057671
     69 N6         -6.7520   -1.9690   -0.4310 n         1 MOL     -0.058181
     70 C23        -7.0190   -2.8020    0.7660 c3        1 MOL     -0.386513
     71 C24        -5.9870   -3.7530    1.2690 c         1 MOL      0.611518
     72 O13        -6.2930   -4.6800    1.9930 o         1 MOL     -0.593875
     73 H30        -6.5740   -1.0010   -0.2100 hn        1 MOL      0.181078
     74 H31        -7.9500   -3.3460    0.5950 h1        1 MOL      0.130517
     75 H32        -7.1090   -2.0660    1.5750 h1        1 MOL      0.130517
     76 N7         -4.7100   -3.6040    0.8830 n         1 MOL     -0.264723
     77 C25        -3.4960   -4.3850    1.2380 c3        1 MOL      0.040352
     78 C26        -2.2760   -3.5070    1.5220 c         1 MOL      0.381232
     79 O14        -2.1890   -2.5160    0.8560 o         1 MOL     -0.478389
     80 C27        -3.1380   -5.4620    0.1680 c3        1 MOL     -0.347978
     81 C28        -2.8780   -4.8510   -1.2180 c3        1 MOL     -0.164174
     82 C29        -2.6930   -5.6870   -2.4220 c         1 MOL      0.668449
     83 N8         -3.0260   -5.2020   -3.5810 n         1 MOL     -0.773444
     84 O15        -2.2050   -6.8080   -2.4530 o         1 MOL     -0.632146
     85 H33        -4.5820   -2.8950    0.1720 hn        1 MOL      0.216023
     86 H34        -3.7660   -4.9080    2.1540 h1        1 MOL      0.009484
     87 H35        -4.0640   -6.0100    0.0100 hc        1 MOL      0.140223
     88 H36        -2.3510   -6.1430    0.5010 hc        1 MOL      0.140223
     89 H37        -1.9470   -4.2960   -1.1760 hc        1 MOL      0.113879
     90 H38        -3.6180   -4.0900   -1.4850 hc        1 MOL      0.113879
     91 H39        -3.1560   -4.1970   -3.5710 hn        1 MOL      0.353215
     92 H40        -2.8260   -5.6530   -4.4670 hn        1 MOL      0.353215
     93 N9         -1.3860   -3.9160    2.4030 n         1 MOL     -0.297861
     94 C30        -0.0710   -3.2060    2.5190 c3        1 MOL      0.023485
     95 C31         0.9900   -3.7690    1.4780 c         1 MOL      0.530712
     96 O16         1.0890   -4.9980    1.3810 o         1 MOL     -0.604117
     97 C32         0.4910   -3.4070    3.9360 c3        1 MOL      0.008910
     98 C33         1.8940   -2.7560    4.1210 c3        1 MOL     -0.108287
     99 C34        -0.4140   -2.7320    4.9760 c3        1 MOL     -0.108287
    100 H41        -1.4160   -4.8700    2.7240 hn        1 MOL      0.279197
    101 H42        -0.2780   -2.1560    2.2970 h1        1 MOL      0.099116
    102 H43         0.4360   -4.4800    4.1330 hc        1 MOL      0.005360
    103 H44         2.2880   -3.0510    5.0860 hc        1 MOL      0.020356
    104 H45         2.5690   -3.0860    3.3300 hc        1 MOL      0.020356
    105 H46         1.8080   -1.6670    4.1510 hc        1 MOL      0.020356
    106 H47        -0.3550   -1.6490    4.8520 hc        1 MOL      0.020356
    107 H48        -1.4270   -3.1080    4.8270 hc        1 MOL      0.020356
    108 H49        -0.0540   -2.9350    5.9840 hc        1 MOL      0.020356
    109 N10         1.7440   -2.8910    0.8650 n         1 MOL     -0.141367
    110 C35         2.7350   -3.3130   -0.1130 c3        1 MOL      0.123021
    111 C36         4.1640   -2.7690    0.2850 c         1 MOL      0.442338
    112 O17         4.3270   -2.2670    1.3840 o         1 MOL     -0.434001
    113 C37         2.2680   -2.9930   -1.5160 c3        1 MOL     -0.125383
    114 C38         2.7710   -1.6370   -1.9310 c         1 MOL      0.490783
    115 N11         2.0730   -0.6110   -1.4810 n         1 MOL     -0.637295
    116 O18         3.7150   -1.4870   -2.7260 o         1 MOL     -0.521491
    117 H50         1.5780   -1.9180    1.0960 hn        1 MOL      0.084631
    118 H51         2.8140   -4.3930   -0.0520 h1        1 MOL      0.039781
    119 H52         1.1830   -2.9720   -1.5400 hc        1 MOL      0.050965
    120 H53         2.7220   -3.6960   -2.2130 hc        1 MOL      0.050965
    121 H54         1.2700   -0.7490   -0.8880 hn        1 MOL      0.379999
    122 H55         2.1030    0.2270   -2.0370 hn        1 MOL      0.379999
    123 N12         5.2100   -2.9610   -0.5260 n         1 MOL     -0.656952
    124 C39         6.6070   -2.6090   -0.0550 c3        1 MOL      0.472450
    125 C40         6.8620   -1.1630    0.4230 c         1 MOL      0.055700
    126 O19         7.6700   -0.9670    1.3530 o         1 MOL     -0.501145
    127 C41         7.7030   -3.0650   -1.0720 c3        1 MOL     -0.395596
    128 C42         8.2370   -1.9300   -1.9320 ca        1 MOL      0.128207
    129 C43         9.4220   -1.2410   -1.5030 ca        1 MOL     -0.187125
    130 C44         7.7020   -1.6270   -3.2300 ca        1 MOL     -0.187125
    131 C45         9.9800   -0.2270   -2.2930 ca        1 MOL     -0.258058
    132 C46         8.3330   -0.6720   -4.0740 ca        1 MOL     -0.258058
    133 C47         9.4430    0.0510   -3.5760 ca        1 MOL      0.228619
    134 O20         9.9700    0.9680   -4.4340 oh        1 MOL     -0.367745
    135 H56         5.0290   -3.2450   -1.4830 hn        1 MOL      0.322561
    136 H57         6.7800   -3.2360    0.8150 h1        1 MOL      0.030873
    137 H58         7.2730   -3.8730   -1.6700 hc        1 MOL      0.107814
    138 H59         8.4950   -3.3650   -0.3800 hc        1 MOL      0.107814
    139 H60         9.9400   -1.5330   -0.6030 ha        1 MOL      0.147062
    140 H61         6.8280   -2.1580   -3.5820 ha        1 MOL      0.147062
    141 H62        10.9110    0.2600   -2.0550 ha        1 MOL      0.169301
    142 H63         7.8730   -0.4520   -5.0250 ha        1 MOL      0.169301
    143 H64        10.7660    1.3240   -4.0360 ho        1 MOL      0.284137
    144 N13         6.3160   -0.1630   -0.2400 n         1 MOL     -0.024634
    145 C48         6.4690    1.2700    0.0570 c3        1 MOL      0.079426
    146 C49         5.4290    1.7840    1.1060 c         1 MOL      0.452733
    147 O21         5.3670    2.9660    1.4570 o         1 MOL     -0.508690
    148 C50         6.4650    2.0890   -1.2230 c3        1 MOL     -0.441443
    149 C51         5.1610    2.0930   -1.9850 c3        1 MOL      0.344274
    150 C52         5.3920    2.7340   -3.3430 c         1 MOL      0.572601
    151 O22         5.6740    3.9330   -3.4740 o         1 MOL     -0.708918
    152 O23         5.2360    1.9710   -4.3730 o         1 MOL     -0.708918
    153 H65         5.7720   -0.4360   -1.0440 hn        1 MOL      0.328843
    154 H66         7.4420    1.5620    0.4520 h1        1 MOL      0.052530
    155 H67         7.3300    1.6720   -1.7550 hc        1 MOL      0.124263
    156 H68         6.4710    3.1460   -0.9600 hc        1 MOL      0.124263
    157 H69         4.4020    2.7140   -1.5000 hc        1 MOL     -0.137337
    158 H70         4.7060    1.1190   -2.1110 hc        1 MOL     -0.137337
    159 N14         4.6240    0.8710    1.6310 n         1 MOL     -0.469653
    160 C53         3.8000    1.1710    2.7860 c3        1 MOL     -0.035387
    161 C54         4.2310    0.4780    4.1170 c         1 MOL      0.436926
    162 O24         3.5900    0.3810    5.0670 o         1 MOL     -0.498347
    163 C55         2.2990    0.8410    2.5070 c3        1 MOL      0.050317
    164 C56         1.5800    1.4850    1.3000 c3        1 MOL     -0.123192
    165 C57         0.2680    0.8800    0.9030 c         1 MOL      0.856621
    166 O25        -0.7040    1.6350    0.7610 o         1 MOL     -0.857827
    167 O26         0.1480   -0.3290    0.7470 o         1 MOL     -0.857827
    168 H71         4.5590   -0.0850    1.2980 hn        1 MOL      0.164133
    169 H72         3.7840    2.2480    2.9210 h1        1 MOL      0.091227
    170 H73         1.6670    0.9890    3.3870 hc        1 MOL      0.070200
    171 H74         2.3300   -0.2100    2.2100 hc        1 MOL      0.070200
    172 H75         2.1220    1.2290    0.3830 hc        1 MOL      0.067516
    173 H76         1.5130    2.5680    1.4000 hc        1 MOL      0.067516
    174 N15         5.4450   -0.0960    4.1010 n         1 MOL     -0.283173
    175 C58         5.9560   -0.9280    5.2320 c3        1 MOL     -0.052659
    176 H77         5.9080   -1.9820    4.9580 h1        1 MOL      0.047746
    177 H78         6.9900   -0.6570    5.4460 h1        1 MOL      0.047746
    178 H79         5.3440   -0.7560    6.1160 h1        1 MOL      0.047746
    179 H80         6.0400   -0.0500    3.2900 hn        1 MOL      0.255665
    180 Ca1        -2.6140   -0.0130    0.2100 Ca        1 MOL      1.758215
    181 O27        -2.0510   -0.1140    2.8530 oh        1 MOL     -0.888166
    182 H81        -2.2930   -0.6670    3.5920 ho        1 MOL      0.430000
    183 H82        -1.3890    0.4880    3.1990 ho        1 MOL      0.430000
    184 O28        -1.0390   -0.8910   -1.8980 oh        1 MOL     -0.888166
    185 H83        -1.0820   -0.1080   -2.4470 ho        1 MOL      0.430000
    186 H84        -1.6150   -1.5230   -2.3320 ho        1 MOL      0.430000
    187 O29        -4.9030   -0.4830    1.3980 oh        1 MOL     -0.888166
    188 H85        -5.6550    0.0940    1.2380 ho        1 MOL      0.430000
    189 H86        -4.9940   -0.7330    2.3190 ho        1 MOL      0.430000
@<TRIPOS>BOND
     1    1    2 1   
     2    1    4 1   
     3    1    5 1   
     4    1    6 1   
     5    2    3 2   
     6    2    7 1   
     7    7    8 1   
     8    7   15 1   
     9    8    9 1   
    10    8   11 1   
    11    8   16 1   
    12    9   10 2   
    13    9   19 1   
    14   11   12 1   
    15   11   17 1   
    16   11   18 1   
    17   12   13 1   
    18   12   14 1   
    19   19   20 1   
    20   19   27 1   
    21   20   21 1   
    22   20   23 1   
    23   20   28 1   
    24   21   22 2   
    25   21   38 1   
    26   23   24 1   
    27   23   25 1   
    28   23   29 1   
    29   24   26 1   
    30   24   30 1   
    31   24   31 1   
    32   25   32 1   
    33   25   33 1   
    34   25   34 1   
    35   26   35 1   
    36   26   36 1   
    37   26   37 1   
    38   38   39 1   
    39   38   46 1   
    40   39   40 1   
    41   39   42 1   
    42   39   47 1   
    43   40   41 2   
    44   40   50 1   
    45   42   43 1   
    46   42   48 1   
    47   42   49 1   
    48   43   44 1   
    49   43   45 1   
    50   50   51 1   
    51   50   54 1   
    52   51   52 1   
    53   51   55 1   
    54   51   56 1   
    55   52   53 2   
    56   52   57 1   
    57   57   58 1   
    58   57   65 1   
    59   58   59 1   
    60   58   61 1   
    61   58   66 1   
    62   59   60 2   
    63   59   69 1   
    64   61   62 1   
    65   61   67 1   
    66   61   68 1   
    67   62   63 1   
    68   62   64 1   
    69   69   70 1   
    70   69   73 1   
    71   70   71 1   
    72   70   74 1   
    73   70   75 1   
    74   71   72 2   
    75   71   76 1   
    76   76   77 1   
    77   76   85 1   
    78   77   78 1   
    79   77   80 1   
    80   77   86 1   
    81   78   79 2   
    82   78   93 1   
    83   80   81 1   
    84   80   87 1   
    85   80   88 1   
    86   81   82 1   
    87   81   89 1   
    88   81   90 1   
    89   82   83 1   
    90   82   84 2   
    91   83   91 1   
    92   83   92 1   
    93   93   94 1   
    94   93  100 1   
    95   94   95 1   
    96   94   97 1   
    97   94  101 1   
    98   95   96 2   
    99   95  109 1   
   100   97   98 1   
   101   97   99 1   
   102   97  102 1   
   103   98  103 1   
   104   98  104 1   
   105   98  105 1   
   106   99  106 1   
   107   99  107 1   
   108   99  108 1   
   109  109  110 1   
   110  109  117 1   
   111  110  111 1   
   112  110  113 1   
   113  110  118 1   
   114  111  112 2   
   115  111  123 1   
   116  113  114 1   
   117  113  119 1   
   118  113  120 1   
   119  114  115 1   
   120  114  116 2   
   121  115  121 1   
   122  115  122 1   
   123  123  124 1   
   124  123  135 1   
   125  124  125 1   
   126  124  127 1   
   127  124  136 1   
   128  125  126 2   
   129  125  144 1   
   130  127  128 1   
   131  127  137 1   
   132  127  138 1   
   133  128  129 ar  
   134  128  130 ar  
   135  129  131 ar  
   136  129  139 1   
   137  130  132 ar  
   138  130  140 1   
   139  131  133 ar  
   140  131  141 1   
   141  132  133 ar  
   142  132  142 1   
   143  133  134 1   
   144  134  143 1   
   145  144  145 1   
   146  144  153 1   
   147  145  146 1   
   148  145  148 1   
   149  145  154 1   
   150  146  147 2   
   151  146  159 1   
   152  148  149 1   
   153  148  155 1   
   154  148  156 1   
   155  149  150 1   
   156  149  157 1   
   157  149  158 1   
   158  150  151 1   
   159  150  152 1   
   160  159  160 1   
   161  159  168 1   
   162  160  161 1   
   163  160  163 1   
   164  160  169 1   
   165  161  162 2   
   166  161  174 1   
   167  163  164 1   
   168  163  170 1   
   169  163  171 1   
   170  164  165 1   
   171  164  172 1   
   172  164  173 1   
   173  165  166 1   
   174  165  167 1   
   175  174  175 1   
   176  174  179 1   
   177  175  176 1   
   178  175  177 1   
   179  175  178 1   
   180  181  182 1   
   181  181  183 1   
   182  184  185 1   
   183  184  186 1   
   184  187  188 1   
   185  187  189 1   
@<TRIPOS>SUBSTRUCTURE
     1 MOL         1 TEMP              0 ****  ****    0 ROOT
