@<TRIPOS>MOLECULE
MOL
  182   178     1     0     0
SMALL
resp


@<TRIPOS>ATOM
      1 C1         -1.9220   -3.7530    5.6580 c3        1 MOL     -0.325703
      2 C2         -1.5030   -3.0800    4.3120 c         1 MOL      0.748337
      3 O1         -2.3480   -2.9550    3.4650 o         1 MOL     -0.620459
      4 H1         -1.0460   -4.1960    6.1310 hc        1 MOL      0.082676
      5 H2         -2.3520   -3.0030    6.3220 hc        1 MOL      0.082676
      6 H3         -2.6610   -4.5300    5.4610 hc        1 MOL      0.082676
      7 N1         -0.2430   -2.8010    4.0380 n         1 MOL     -0.565268
      8 C3          0.3250   -2.6880    2.6370 c3        1 MOL      0.022529
      9 C4          0.2770   -3.9920    1.8930 c         1 MOL      0.463709
     10 O2          0.7660   -5.0480    2.3680 o         1 MOL     -0.536990
     11 C5          1.8070   -2.2030    2.7790 c3        1 MOL     -0.151589
     12 C6          2.5270   -1.7140    1.5100 c         1 MOL      0.943836
     13 O3          2.0310   -1.8990    0.3990 o         1 MOL     -0.883321
     14 O4          3.5770   -1.0320    1.5590 o         1 MOL     -0.883321
     15 H4          0.4620   -2.8380    4.7630 hn        1 MOL      0.313939
     16 H5         -0.2530   -1.8660    2.2240 h1        1 MOL      0.061841
     17 H6          2.3910   -3.0370    3.1730 hc        1 MOL      0.051305
     18 H7          1.7130   -1.5010    3.6020 hc        1 MOL      0.051305
     19 N2         -0.2180   -3.9690    0.6310 n         1 MOL     -0.002259
     20 C7         -0.5120   -5.1920   -0.0740 c3        1 MOL     -0.312010
     21 C8          0.6210   -5.7420   -0.9370 c         1 MOL      0.629051
     22 O5          0.5710   -6.8360   -1.5080 o         1 MOL     -0.569271
     23 C9         -1.7350   -4.9280   -0.9570 c3        1 MOL      0.079522
     24 C10        -3.0080   -4.9330   -0.1290 c3        1 MOL      0.051586
     25 C11        -4.2290   -4.9290   -1.0960 c3        1 MOL     -0.240293
     26 C12        -5.5510   -4.9410   -0.3270 c3        1 MOL      0.144427
     27 N3         -5.6940   -6.1000    0.5880 n4        1 MOL     -0.370938
     28 H8         -0.5510   -3.0700    0.3150 hn        1 MOL      0.098594
     29 H9         -0.7430   -5.9720    0.6470 h1        1 MOL      0.112209
     30 H10        -1.8060   -5.7000   -1.7220 hc        1 MOL      0.006044
     31 H11        -1.6160   -3.9910   -1.4980 hc        1 MOL      0.006044
     32 H12        -2.8790   -4.0060    0.4220 hc        1 MOL      0.007217
     33 H13        -3.0920   -5.8250    0.4980 hc        1 MOL      0.007217
     34 H14        -4.1100   -5.8740   -1.6320 hc        1 MOL      0.084799
     35 H15        -4.1190   -4.1040   -1.7930 hc        1 MOL      0.084799
     36 H16        -6.4600   -4.9330   -0.9380 hx        1 MOL      0.065303
     37 H17        -5.5650   -3.9740    0.1780 hx        1 MOL      0.065303
     38 H18        -6.5700   -6.1200    1.1040 hn        1 MOL      0.327868
     39 H19        -5.7240   -6.9840    0.0940 hn        1 MOL      0.327868
     40 H20        -4.9460   -6.0710    1.2640 hn        1 MOL      0.327868
     41 N4          1.6740   -4.9160   -1.0790 n         1 MOL     -0.388219
     42 C13         2.8180   -5.0830   -1.9200 c3        1 MOL     -0.031033
     43 C14         4.1460   -4.6030   -1.2030 c         1 MOL      0.447080
     44 O6          5.1910   -4.7600   -1.7550 o         1 MOL     -0.530261
     45 C15         2.7430   -4.5630   -3.3670 c3        1 MOL     -0.161523
     46 C16         2.6190   -3.0350   -3.4130 c         1 MOL      0.758760
     47 O7          2.6960   -2.5440   -4.5530 o         1 MOL     -0.716621
     48 O8          2.4990   -2.3240   -2.3690 o         1 MOL     -0.716621
     49 H21         1.4650   -3.9930   -0.7340 hn        1 MOL      0.215178
     50 H22         2.9810   -6.1500   -2.0760 h1        1 MOL      0.118083
     51 H23         1.8240   -4.9990   -3.7460 hc        1 MOL      0.065226
     52 H24         3.5490   -4.8630   -4.0420 hc        1 MOL      0.065226
     53 N5          4.0630   -4.1450    0.0020 n         1 MOL     -0.209790
     54 C17         5.1940   -3.9110    0.9350 c3        1 MOL     -0.142679
     55 C18         6.1110   -2.8210    0.4930 c         1 MOL      0.557766
     56 O9          7.2640   -2.8720    0.8670 o         1 MOL     -0.559663
     57 H25         3.1260   -3.9740    0.3330 hn        1 MOL      0.154934
     58 H26         5.8900   -4.7430    1.0530 h1        1 MOL      0.098757
     59 H27         4.8170   -3.6640    1.9280 h1        1 MOL      0.098757
     60 N6          5.6080   -1.8510   -0.3130 n         1 MOL     -0.262006
     61 C19         6.4170   -0.7500   -0.9290 c3        1 MOL     -0.218820
     62 C20         6.7010    0.4210    0.0650 c         1 MOL      0.392729
     63 O10         7.4870    1.3820   -0.2550 o         1 MOL     -0.494387
     64 C21         5.7360   -0.3540   -2.2260 c3        1 MOL      0.064330
     65 C22         4.8460    0.8180   -2.1170 c         1 MOL      0.162314
     66 N7          5.0810    1.9520   -2.7130 n         1 MOL     -0.536649
     67 O11         3.8500    0.7470   -1.4260 o         1 MOL     -0.262862
     68 H28         4.6630   -1.9480   -0.6640 hn        1 MOL      0.268256
     69 H29         7.3590   -1.2150   -1.2140 h1        1 MOL      0.161325
     70 H30         5.0890   -1.1190   -2.6510 hc        1 MOL      0.060012
     71 H31         6.4970   -0.3240   -3.0030 hc        1 MOL      0.060012
     72 H32         5.9350    2.0540   -3.2480 hn        1 MOL      0.314594
     73 H33         4.4290    2.7260   -2.7710 hn        1 MOL      0.314594
     74 N8          6.0950    0.3860    1.2340 n         1 MOL     -0.245110
     75 C23         6.2640    1.4870    2.2470 c3        1 MOL     -0.170154
     76 C24         5.1000    2.4670    2.2140 c         1 MOL      0.671765
     77 O12         5.1750    3.4340    2.9680 o         1 MOL     -0.582331
     78 H34         5.2980   -0.2400    1.2310 hn        1 MOL      0.285272
     79 H35         7.2480    1.9400    2.1040 h1        1 MOL      0.115119
     80 H36         6.2340    1.0820    3.2570 h1        1 MOL      0.115119
     81 N9          4.0730    2.2230    1.4030 n         1 MOL     -0.596669
     82 C25         2.9130    3.1470    1.2710 c3        1 MOL      0.226478
     83 C26         1.6340    2.3780    1.1420 c         1 MOL      0.400593
     84 O13         1.6000    1.3240    0.4970 o         1 MOL     -0.644729
     85 C27         3.1130    4.0400    0.0430 c3        1 MOL     -0.017182
     86 C28         4.2870    5.0050    0.0850 ca        1 MOL      0.011677
     87 C29         5.5790    4.6120   -0.1390 ca        1 MOL     -0.091479
     88 C30         3.9390    6.3250    0.2480 ca        1 MOL     -0.091479
     89 C31         6.6120    5.5760   -0.3450 ca        1 MOL     -0.243479
     90 C32         4.9790    7.2430    0.1530 ca        1 MOL     -0.243479
     91 C33         6.2690    6.9040   -0.1000 ca        1 MOL      0.271680
     92 O14         7.3340    7.7960   -0.1530 oh        1 MOL     -0.428238
     93 H37         3.9250    1.3520    0.9050 hn        1 MOL      0.465075
     94 H38         2.8590    3.8720    2.0920 h1        1 MOL      0.036462
     95 H39         2.1360    4.4840   -0.1510 hc        1 MOL     -0.012760
     96 H40         3.4060    3.5350   -0.8690 hc        1 MOL     -0.012760
     97 H41         5.8090    3.5630   -0.3140 ha        1 MOL      0.082701
     98 H42         2.9490    6.7530    0.3400 ha        1 MOL      0.082701
     99 H43         7.6590    5.3500   -0.4420 ha        1 MOL      0.143269
    100 H44         4.7060    8.2750    0.2870 ha        1 MOL      0.143269
    101 H45         7.0090    8.6680    0.0800 ho        1 MOL      0.312244
    102 N10         0.5660    2.8370    1.7230 n         1 MOL     -0.333134
    103 C34        -0.8190    2.3160    1.6490 c3        1 MOL     -0.029948
    104 C35        -1.6450    3.4530    1.0560 c         1 MOL      0.387119
    105 O15        -1.8660    4.5200    1.6280 o         1 MOL     -0.517894
    106 C36        -1.2700    1.9410    3.0940 c3        1 MOL      0.328650
    107 C37        -0.1500    1.1070    3.8540 c3        1 MOL      0.256019
    108 C38        -2.5850    1.1550    3.0800 c3        1 MOL     -0.480876
    109 C39        -0.5110    0.5870    5.2860 c3        1 MOL     -0.406206
    110 H46         0.7310    3.6550    2.2980 hn        1 MOL      0.259332
    111 H47        -0.9550    1.4800    0.9640 h1        1 MOL      0.028323
    112 H48        -1.4120    2.8690    3.6510 hc        1 MOL     -0.051483
    113 H49         0.6760    1.8250    3.8680 hc        1 MOL     -0.068080
    114 H50         0.1850    0.2430    3.2880 hc        1 MOL     -0.068080
    115 H51        -3.0650    1.1450    4.0540 hc        1 MOL      0.104587
    116 H52        -3.2820    1.6110    2.3750 hc        1 MOL      0.104587
    117 H53        -2.3970    0.1130    2.8070 hc        1 MOL      0.104587
    118 H54         0.2620   -0.0870    5.6490 hc        1 MOL      0.094529
    119 H55        -0.6690    1.4420    5.9420 hc        1 MOL      0.094529
    120 H56        -1.4760    0.0700    5.2410 hc        1 MOL      0.094529
    121 N11        -2.2780    3.1280   -0.0540 n         1 MOL     -0.089597
    122 C40        -3.2320    3.8930   -0.8020 c3        1 MOL     -0.268550
    123 C41        -4.6860    3.8090   -0.3320 c         1 MOL      0.543145
    124 O16        -5.0350    2.8860    0.4150 o         1 MOL     -0.364984
    125 C42        -3.0840    3.6400   -2.3520 c3        1 MOL      0.045921
    126 O17        -3.3060    2.2590   -2.6670 oh        1 MOL     -0.575512
    127 H57        -1.9980    2.2230   -0.4040 hn        1 MOL      0.226340
    128 H58        -2.9970    4.9490   -0.6510 h1        1 MOL      0.094512
    129 H59        -2.0560    3.8510   -2.6420 h1        1 MOL      0.076254
    130 H60        -3.7430    4.3140   -2.8870 h1        1 MOL      0.076254
    131 H61        -2.6280    1.7430   -2.2350 ho        1 MOL      0.374866
    132 N12        -5.5660    4.6590   -0.8290 n         1 MOL     -0.409681
    133 C43        -7.0260    4.5490   -0.5180 c3        1 MOL      0.004096
    134 C44        -7.5380    3.1930   -0.9450 c         1 MOL      0.474517
    135 O18        -8.1600    2.4910   -0.1460 o         1 MOL     -0.510515
    136 C45        -7.8270    5.7680   -1.0780 c3        1 MOL     -0.194804
    137 H62        -5.2650    5.4160   -1.4330 hn        1 MOL      0.286200
    138 H63        -7.1040    4.5600    0.5680 h1        1 MOL      0.113063
    139 H64        -7.4100    6.7020   -0.7110 hc        1 MOL      0.076329
    140 H65        -7.7890    5.7060   -2.1660 hc        1 MOL      0.076329
    141 H66        -8.8700    5.8720   -0.7970 hc        1 MOL      0.076329
    142 N13        -7.1810    2.6850   -2.1570 n         1 MOL     -0.405833
    143 C46        -7.4720    1.2880   -2.6630 c3        1 MOL      0.032943
    144 C47        -7.0110    0.1600   -1.7610 c         1 MOL      0.462625
    145 O19        -7.5410   -0.9880   -1.8670 o         1 MOL     -0.548883
    146 C48        -7.0530    1.1360   -4.1290 c3        1 MOL     -0.282109
    147 H67        -6.7130    3.3020   -2.7990 hn        1 MOL      0.310259
    148 H68        -8.5530    1.2070   -2.5760 h1        1 MOL      0.109717
    149 H69        -7.5190    1.9240   -4.7250 hc        1 MOL      0.093053
    150 H70        -5.9890    1.3420   -4.2440 hc        1 MOL      0.093053
    151 H71        -7.3280    0.1470   -4.4900 hc        1 MOL      0.093053
    152 N14        -5.9780    0.3700   -0.8740 n         1 MOL     -0.207841
    153 C49        -5.5510   -0.5770    0.1940 c3        1 MOL      0.032272
    154 C50        -6.1440   -0.3560    1.5610 c         1 MOL      0.441526
    155 O20        -6.4690   -1.3620    2.1970 o         1 MOL     -0.552848
    156 C51        -3.9760   -0.3500    0.3050 c3        1 MOL     -0.069237
    157 C52        -3.2610   -0.9760   -0.8310 c3        1 MOL     -0.029257
    158 C53        -1.7980   -0.5140   -0.8220 c         1 MOL      0.645308
    159 O21        -0.9370   -1.3400   -0.4800 o         1 MOL     -0.641849
    160 O22        -1.4730    0.6030   -1.3370 o         1 MOL     -0.641849
    161 H72        -5.5010    1.2640   -0.8920 hn        1 MOL      0.107457
    162 H73        -5.7130   -1.5950   -0.1490 h1        1 MOL      0.056037
    163 H74        -3.6720   -0.7480    1.2740 hc        1 MOL      0.053971
    164 H75        -3.6590    0.6930    0.3150 hc        1 MOL      0.053971
    165 H76        -3.7390   -0.8370   -1.8110 hc        1 MOL      0.025368
    166 H77        -3.3650   -2.0600   -0.7740 hc        1 MOL      0.025368
    167 N15        -6.4380    0.9230    1.9480 n         1 MOL     -0.095766
    168 C54        -7.2410    1.1900    3.1280 c3        1 MOL     -0.378328
    169 H78        -6.6540    0.9740    4.0210 h1        1 MOL      0.138603
    170 H79        -7.5400    2.2380    3.1340 h1        1 MOL      0.138603
    171 H80        -8.1280    0.5570    3.1140 h1        1 MOL      0.138603
    172 H81        -6.0430    1.6510    1.3690 hn        1 MOL      0.140032
    173 Ca1         1.2460   -0.2660   -1.5110 Ca        1 MOL      1.760897
    174 O23         2.3980    0.1170   -4.1300 oh        1 MOL     -0.864854
    175 H82         2.6000    0.5690   -4.9490 ho        1 MOL      0.410757
    176 H83         2.4570   -0.8130   -4.3520 ho        1 MOL      0.410757
    177 O24        -0.4370   -1.4040   -3.4990 oh        1 MOL     -0.864854
    178 H84        -1.2510   -1.8820   -3.3540 ho        1 MOL      0.410757
    179 H85         0.0470   -1.9490   -4.1190 ho        1 MOL      0.410757
    180 O25         1.0320    2.2760   -2.5440 oh        1 MOL     -0.864854
    181 H86         1.7210    2.7510   -3.0160 ho        1 MOL      0.410757
    182 H87         0.3570    2.9280   -2.3710 ho        1 MOL      0.410757
@<TRIPOS>BOND
     1    1    2 1   
     2    1    4 1   
     3    1    5 1   
     4    1    6 1   
     5    2    3 2   
     6    2    7 1   
     7    7    8 1   
     8    7   15 1   
     9    8    9 1   
    10    8   11 1   
    11    8   16 1   
    12    9   10 2   
    13    9   19 1   
    14   11   12 1   
    15   11   17 1   
    16   11   18 1   
    17   12   13 1   
    18   12   14 1   
    19   19   20 1   
    20   19   28 1   
    21   20   21 1   
    22   20   23 1   
    23   20   29 1   
    24   21   22 2   
    25   21   41 1   
    26   23   24 1   
    27   23   30 1   
    28   23   31 1   
    29   24   25 1   
    30   24   32 1   
    31   24   33 1   
    32   25   26 1   
    33   25   34 1   
    34   25   35 1   
    35   26   27 1   
    36   26   36 1   
    37   26   37 1   
    38   27   38 1   
    39   27   39 1   
    40   27   40 1   
    41   41   42 1   
    42   41   49 1   
    43   42   43 1   
    44   42   45 1   
    45   42   50 1   
    46   43   44 2   
    47   43   53 1   
    48   45   46 1   
    49   45   51 1   
    50   45   52 1   
    51   46   47 1   
    52   46   48 1   
    53   53   54 1   
    54   53   57 1   
    55   54   55 1   
    56   54   58 1   
    57   54   59 1   
    58   55   56 2   
    59   55   60 1   
    60   60   61 1   
    61   60   68 1   
    62   61   62 1   
    63   61   64 1   
    64   61   69 1   
    65   62   63 2   
    66   62   74 1   
    67   64   65 1   
    68   64   70 1   
    69   64   71 1   
    70   65   66 1   
    71   65   67 2   
    72   66   72 1   
    73   66   73 1   
    74   74   75 1   
    75   74   78 1   
    76   75   76 1   
    77   75   79 1   
    78   75   80 1   
    79   76   77 2   
    80   76   81 1   
    81   81   82 1   
    82   81   93 1   
    83   82   83 1   
    84   82   85 1   
    85   82   94 1   
    86   83   84 2   
    87   83  102 1   
    88   85   86 1   
    89   85   95 1   
    90   85   96 1   
    91   86   87 ar  
    92   86   88 ar  
    93   87   89 ar  
    94   87   97 1   
    95   88   90 ar  
    96   88   98 1   
    97   89   91 ar  
    98   89   99 1   
    99   90   91 ar  
   100   90  100 1   
   101   91   92 1   
   102   92  101 1   
   103  102  103 1   
   104  102  110 1   
   105  103  104 1   
   106  103  106 1   
   107  103  111 1   
   108  104  105 2   
   109  104  121 1   
   110  106  107 1   
   111  106  108 1   
   112  106  112 1   
   113  107  109 1   
   114  107  113 1   
   115  107  114 1   
   116  108  115 1   
   117  108  116 1   
   118  108  117 1   
   119  109  118 1   
   120  109  119 1   
   121  109  120 1   
   122  121  122 1   
   123  121  127 1   
   124  122  123 1   
   125  122  125 1   
   126  122  128 1   
   127  123  124 2   
   128  123  132 1   
   129  125  126 1   
   130  125  129 1   
   131  125  130 1   
   132  126  131 1   
   133  132  133 1   
   134  132  137 1   
   135  133  134 1   
   136  133  136 1   
   137  133  138 1   
   138  134  135 2   
   139  134  142 1   
   140  136  139 1   
   141  136  140 1   
   142  136  141 1   
   143  142  143 1   
   144  142  147 1   
   145  143  144 1   
   146  143  146 1   
   147  143  148 1   
   148  144  145 2   
   149  144  152 1   
   150  146  149 1   
   151  146  150 1   
   152  146  151 1   
   153  152  153 1   
   154  152  161 1   
   155  153  154 1   
   156  153  156 1   
   157  153  162 1   
   158  154  155 2   
   159  154  167 1   
   160  156  157 1   
   161  156  163 1   
   162  156  164 1   
   163  157  158 1   
   164  157  165 1   
   165  157  166 1   
   166  158  159 1   
   167  158  160 1   
   168  167  168 1   
   169  167  172 1   
   170  168  169 1   
   171  168  170 1   
   172  168  171 1   
   173  174  175 1   
   174  174  176 1   
   175  177  178 1   
   176  177  179 1   
   177  180  181 1   
   178  180  182 1   
@<TRIPOS>SUBSTRUCTURE
     1 MOL         1 TEMP              0 ****  ****    0 ROOT
