@<TRIPOS>MOLECULE
MOL
  186   183     1     0     0
SMALL
resp


@<TRIPOS>ATOM
      1 C1          0.1550   -1.2020    6.3450 c3        1 MOL     -0.190282
      2 C2          0.5890   -1.2410    4.9340 c         1 MOL      0.730571
      3 O1         -0.1970   -1.6870    4.0890 o         1 MOL     -0.548515
      4 H1          0.7380   -0.4560    6.8840 hc        1 MOL      0.044684
      5 H2         -0.9030   -0.9400    6.3930 hc        1 MOL      0.044684
      6 H3          0.3080   -2.1810    6.8000 hc        1 MOL      0.044684
      7 N1          1.8340   -0.8540    4.5310 n         1 MOL     -0.660608
      8 C3          2.4050   -1.0810    3.2160 c3        1 MOL      0.221597
      9 C4          2.6630   -2.5810    2.9940 c         1 MOL      0.580846
     10 O2          3.3080   -3.2300    3.7900 o         1 MOL     -0.627525
     11 C5          3.7260   -0.3090    3.0320 c3        1 MOL     -0.128537
     12 C6          4.2760   -0.3510    1.5990 c         1 MOL      0.618352
     13 O3          5.4580   -0.0490    1.4870 o         1 MOL     -0.590037
     14 O4          3.6200   -0.7660    0.6220 o         1 MOL     -0.590037
     15 H4          2.5040   -0.4640    5.1810 hn        1 MOL      0.312214
     16 H5          1.6500   -0.7830    2.4840 h1        1 MOL     -0.016832
     17 H6          4.4940   -0.5790    3.7620 hc        1 MOL      0.023468
     18 H7          3.4720    0.7480    3.1300 hc        1 MOL      0.023468
     19 N2          2.2060   -3.2070    1.9060 n         1 MOL     -0.196549
     20 C7          2.2040   -4.7420    1.7560 c3        1 MOL     -0.074610
     21 C8          3.1890   -5.0510    0.6170 c         1 MOL      0.499582
     22 O5          3.9220   -6.0310    0.8600 o         1 MOL     -0.577424
     23 C9          0.7530   -5.2380    1.5360 c3        1 MOL      0.119568
     24 C10        -0.0580   -5.1730    2.8710 c3        1 MOL      0.376192
     25 C11         0.6700   -6.6320    0.8400 c3        1 MOL     -0.295902
     26 C12        -1.5020   -5.5450    2.8420 c3        1 MOL     -0.219573
     27 H8          1.7800   -2.6490    1.1890 hn        1 MOL      0.019874
     28 H9          2.6130   -5.2250    2.6380 h1        1 MOL      0.078845
     29 H10         0.4440   -4.4440    0.8590 hc        1 MOL      0.004596
     30 H11        -0.0340   -4.1470    3.2510 hc        1 MOL     -0.103829
     31 H12         0.4090   -5.7750    3.6490 hc        1 MOL     -0.103829
     32 H13         1.1600   -7.3480    1.5020 hc        1 MOL      0.063343
     33 H14        -0.3590   -6.8780    0.5930 hc        1 MOL      0.063343
     34 H15         1.2200   -6.5640   -0.1000 hc        1 MOL      0.063343
     35 H16        -1.9530   -4.7740    2.2150 hc        1 MOL      0.030400
     36 H17        -1.5950   -6.5890    2.5140 hc        1 MOL      0.030400
     37 H18        -1.8940   -5.4570    3.8460 hc        1 MOL      0.030400
     38 N3          3.2550   -4.3230   -0.5000 n         1 MOL     -0.279622
     39 C13         4.2910   -4.5490   -1.5820 c3        1 MOL     -0.089534
     40 C14         5.7060   -3.9370   -1.2950 c         1 MOL      0.455860
     41 O6          6.7110   -4.3340   -1.9200 o         1 MOL     -0.533455
     42 C15         3.7070   -4.1900   -2.9680 c3        1 MOL     -0.185937
     43 C16         3.0740   -2.8270   -3.1020 c         1 MOL      0.804696
     44 O7          3.5140   -1.9370   -2.3350 o         1 MOL     -0.749294
     45 O8          2.1470   -2.6520   -3.9760 o         1 MOL     -0.749294
     46 H19         2.7120   -3.4720   -0.5710 hn        1 MOL      0.303595
     47 H20         4.4520   -5.6100   -1.7350 h1        1 MOL      0.086574
     48 H21         2.8460   -4.8340   -3.1570 hc        1 MOL      0.065568
     49 H22         4.4760   -4.1690   -3.7350 hc        1 MOL      0.065568
     50 N4          5.7860   -2.9600   -0.3680 n         1 MOL     -0.133432
     51 C17         7.0770   -2.3770    0.1530 c3        1 MOL     -0.054154
     52 C18         7.6390   -1.3350   -0.7970 c         1 MOL      0.415493
     53 O9          8.6450   -1.5790   -1.4350 o         1 MOL     -0.554759
     54 H23         4.8740   -2.6960   -0.0140 hn        1 MOL      0.110227
     55 H24         7.8280   -3.1570    0.2830 h1        1 MOL      0.059957
     56 H25         6.9670   -1.9470    1.1370 h1        1 MOL      0.059957
     57 N5          6.8520   -0.2680   -1.0960 n         1 MOL     -0.051618
     58 C19         7.2650    0.9140   -1.8420 c3        1 MOL      0.119420
     59 C20         7.2240    2.1970   -0.9470 c         1 MOL      0.235903
     60 O10         7.6550    3.2640   -1.4500 o         1 MOL     -0.547971
     61 C21         6.2390    1.1560   -2.9930 c3        1 MOL     -0.412091
     62 C22         4.7490    1.2580   -2.6440 c         1 MOL      0.937686
     63 O11         4.4030    1.4810   -1.4610 o         1 MOL     -0.802980
     64 O12         3.8410    1.2340   -3.4490 o         1 MOL     -0.802980
     65 H26         5.9300   -0.2810   -0.6830 hn        1 MOL      0.009994
     66 H27         8.2610    0.8250   -2.2680 h1        1 MOL      0.075906
     67 H28         6.4380    0.3380   -3.6870 hc        1 MOL      0.100779
     68 H29         6.4370    2.1350   -3.4200 hc        1 MOL      0.100779
     69 N6          6.8110    2.1540    0.3190 n         1 MOL     -0.042216
     70 C23         6.9360    3.2250    1.3710 c3        1 MOL     -0.223025
     71 C24         5.6180    3.9610    1.6360 c         1 MOL      0.631564
     72 O13         5.5370    4.8410    2.4920 o         1 MOL     -0.611527
     73 H30         6.4630    1.2480    0.6030 hn        1 MOL      0.068711
     74 H31         7.6670    3.9430    1.0080 h1        1 MOL      0.105311
     75 H32         7.3240    2.7110    2.2520 h1        1 MOL      0.105311
     76 N7          4.5820    3.6430    0.8470 n         1 MOL     -0.488294
     77 C25         3.2790    4.3290    0.8780 c3        1 MOL      0.008329
     78 C26         2.1420    3.3080    0.9450 c         1 MOL      0.743287
     79 O14         2.1340    2.2390    0.3240 o         1 MOL     -0.672766
     80 C27         3.1270    5.3160   -0.2090 c3        1 MOL     -0.062461
     81 C28         4.0010    6.5620   -0.0380 c3        1 MOL     -0.193581
     82 C29         3.5940    7.6920   -0.9580 c         1 MOL      0.655798
     83 N8          4.1370    7.7090   -2.1620 n         1 MOL     -0.817926
     84 O15         2.7910    8.5340   -0.5890 o         1 MOL     -0.577468
     85 H33         4.6690    2.9520    0.1180 hn        1 MOL      0.394839
     86 H34         3.1420    4.9550    1.7640 h1        1 MOL      0.062874
     87 H35         2.1300    5.7560   -0.1750 hc        1 MOL      0.047954
     88 H36         3.2140    4.8730   -1.2060 hc        1 MOL      0.047954
     89 H37         5.0560    6.3440   -0.2130 hc        1 MOL      0.077356
     90 H38         3.9930    7.0020    0.9560 hc        1 MOL      0.077356
     91 H39         4.7080    6.9080   -2.3990 hn        1 MOL      0.370401
     92 H40         3.7620    8.3400   -2.8560 hn        1 MOL      0.370401
     93 N9          1.0440    3.7460    1.5610 n         1 MOL     -0.557573
     94 C30        -0.1700    2.9680    1.6700 c3        1 MOL      0.293464
     95 C31        -1.2090    3.4570    0.6220 c         1 MOL      0.269195
     96 O16        -1.4450    4.6730    0.5520 o         1 MOL     -0.567129
     97 C32        -0.6800    2.9950    3.1850 c3        1 MOL      0.184283
     98 C33        -1.8420    2.0010    3.2940 c3        1 MOL     -0.237250
     99 C34         0.5010    2.6510    4.1980 c3        1 MOL     -0.237250
    100 H41         1.0520    4.7190    1.8620 hn        1 MOL      0.272928
    101 H42         0.0380    1.9240    1.4370 h1        1 MOL      0.072142
    102 H43        -1.0630    3.9910    3.3940 hc        1 MOL     -0.024349
    103 H44        -1.6300    0.9700    2.9710 hc        1 MOL      0.035072
    104 H45        -2.0680    1.9810    4.3550 hc        1 MOL      0.035072
    105 H46        -2.7270    2.2660    2.7170 hc        1 MOL      0.035072
    106 H47         0.7690    1.5910    4.1490 hc        1 MOL      0.035072
    107 H48         1.4230    3.1260    3.8610 hc        1 MOL      0.035072
    108 H49         0.2330    2.8630    5.2230 hc        1 MOL      0.035072
    109 N10        -1.7950    2.5540   -0.1640 n         1 MOL      0.054563
    110 C35        -2.9250    2.8330   -1.0670 c3        1 MOL      0.014653
    111 C36        -4.2370    2.2100   -0.5850 c         1 MOL      0.418443
    112 O17        -4.1990    1.4890    0.4030 o         1 MOL     -0.431352
    113 C37        -2.5020    2.5380   -2.5050 c3        1 MOL     -0.347027
    114 C38        -2.7390    1.1030   -2.9910 c         1 MOL      0.623956
    115 N11        -2.0860    0.1010   -2.4640 n         1 MOL     -0.708646
    116 O18        -3.5730    0.8600   -3.8560 o         1 MOL     -0.609917
    117 H50        -1.3490    1.6400   -0.1530 hn        1 MOL      0.121752
    118 H51        -3.0590    3.9100   -1.0730 h1        1 MOL      0.054917
    119 H52        -1.4190    2.6330   -2.5090 hc        1 MOL      0.110100
    120 H53        -3.0310    3.1160   -3.2600 hc        1 MOL      0.110100
    121 H54        -1.4020    0.3050   -1.7500 hn        1 MOL      0.385209
    122 H55        -2.2360   -0.8250   -2.8270 hn        1 MOL      0.385209
    123 N12        -5.3470    2.3440   -1.2910 n         1 MOL     -0.454581
    124 C39        -6.6180    1.9360   -0.7710 c3        1 MOL      0.055628
    125 C40        -6.8040    0.3890   -0.7320 c         1 MOL      0.606347
    126 O19        -7.4740   -0.1300    0.1350 o         1 MOL     -0.484293
    127 C41        -7.7670    2.4730   -1.5010 c3        1 MOL      0.002853
    128 C42        -9.0820    2.2630   -0.8420 ca        1 MOL     -0.100446
    129 C43        -9.3950    3.0030    0.3260 ca        1 MOL     -0.112338
    130 C44       -10.0540    1.3180   -1.2930 ca        1 MOL     -0.112338
    131 C45       -10.6200    2.7440    1.1000 ca        1 MOL     -0.294922
    132 C46       -11.2500    1.1230   -0.6800 ca        1 MOL     -0.294922
    133 C47       -11.5810    1.8170    0.5640 ca        1 MOL      0.379166
    134 O20       -12.7860    1.7200    1.0720 oh        1 MOL     -0.494339
    135 H56        -5.4200    2.8920   -2.1370 hn        1 MOL      0.293424
    136 H57        -6.6400    2.3070    0.2460 h1        1 MOL      0.097156
    137 H58        -7.7530    2.1740   -2.5530 hc        1 MOL      0.033118
    138 H59        -7.5710    3.5380   -1.6400 hc        1 MOL      0.033118
    139 H60        -8.6330    3.6720    0.6930 ha        1 MOL      0.125497
    140 H61        -9.9690    0.8280   -2.2620 ha        1 MOL      0.125497
    141 H62       -10.8310    3.2880    2.0150 ha        1 MOL      0.149359
    142 H63       -11.9620    0.4530   -1.1410 ha        1 MOL      0.149359
    143 H64       -13.2790    1.0920    0.5380 ho        1 MOL      0.367240
    144 N13        -6.0970   -0.3040   -1.5820 n         1 MOL     -0.459850
    145 C48        -6.0100   -1.7520   -1.6790 c3        1 MOL     -0.027308
    146 C49        -5.4270   -2.2330   -0.3330 c         1 MOL      0.222772
    147 O21        -5.8760   -3.1980    0.2420 o         1 MOL     -0.503209
    148 C50        -5.0370   -2.1230   -2.8270 c3        1 MOL      0.128343
    149 C51        -5.1340   -3.6750   -3.0410 c3        1 MOL     -0.350765
    150 C52        -4.2880   -4.2270   -4.1910 c         1 MOL      0.690914
    151 O22        -4.8310   -4.5780   -5.2540 o         1 MOL     -0.725734
    152 O23        -3.0180   -4.2010   -4.0540 o         1 MOL     -0.725734
    153 H65        -5.5140    0.2250   -2.2050 hn        1 MOL      0.212905
    154 H66        -6.9900   -2.1230   -1.9860 h1        1 MOL      0.114115
    155 H67        -4.0420   -1.7590   -2.5860 hc        1 MOL      0.027687
    156 H68        -5.4340   -1.6600   -3.7340 hc        1 MOL      0.027687
    157 H69        -6.1990   -3.9110   -3.1620 hc        1 MOL      0.066928
    158 H70        -4.8070   -4.1720   -2.1320 hc        1 MOL      0.066928
    159 N14        -4.3960   -1.5830    0.1860 n         1 MOL      0.166717
    160 C53        -3.6250   -1.9540    1.3540 c3        1 MOL     -0.122034
    161 C54        -4.4610   -1.5400    2.5790 c         1 MOL      0.406058
    162 O24        -4.4240   -2.1860    3.6350 o         1 MOL     -0.561388
    163 C55        -2.2370   -1.4330    1.2710 c3        1 MOL      0.228361
    164 C56        -1.4330   -1.9770    0.1200 c3        1 MOL     -0.007266
    165 C57        -0.1340   -1.2490   -0.0240 c         1 MOL      0.850920
    166 O25         0.9360   -1.8730   -0.1070 o         1 MOL     -0.786848
    167 O26        -0.1340   -0.0090   -0.2770 o         1 MOL     -0.786848
    168 H71        -4.1220   -0.8200   -0.4250 hn        1 MOL      0.045139
    169 H72        -3.5040   -3.0330    1.2700 h1        1 MOL      0.090115
    170 H73        -1.6530   -1.6730    2.1700 hc        1 MOL     -0.042504
    171 H74        -2.3330   -0.3500    1.2380 hc        1 MOL     -0.042504
    172 H75        -1.9640   -1.8810   -0.8260 hc        1 MOL     -0.031347
    173 H76        -1.3790   -3.0500    0.2930 hc        1 MOL     -0.031347
    174 N15        -5.3540   -0.5630    2.4480 n         1 MOL      0.041675
    175 C58        -6.2790   -0.1330    3.4710 c3        1 MOL     -0.324832
    176 H77        -6.7320   -1.0060    3.9410 h1        1 MOL      0.104464
    177 H78        -5.7440    0.4480    4.2240 h1        1 MOL      0.104464
    178 H79        -7.0580    0.4830    3.0220 h1        1 MOL      0.104464
    179 H80        -5.4840   -0.1670    1.5320 hn        1 MOL     -0.013117
    180 Ca1         2.2880    0.0910   -1.3610 Ca        1 MOL      1.763424
    181 O27         1.0450    2.1860   -2.5750 oh        1 MOL     -0.927692
    182 H81         1.6280    2.9380   -2.6990 ho        1 MOL      0.441028
    183 H82         0.6240    2.0710   -3.4220 ho        1 MOL      0.441028
    184 O28         0.4360   -0.8270   -2.9500 oh        1 MOL     -0.927692
    185 H83        -0.3920   -0.9700   -3.4160 ho        1 MOL      0.441028
    186 H84         1.0720   -1.3760   -3.4170 ho        1 MOL      0.441028
@<TRIPOS>BOND
     1    1    2 1   
     2    1    4 1   
     3    1    5 1   
     4    1    6 1   
     5    2    3 2   
     6    2    7 1   
     7    7    8 1   
     8    7   15 1   
     9    8    9 1   
    10    8   11 1   
    11    8   16 1   
    12    9   10 2   
    13    9   19 1   
    14   11   12 1   
    15   11   17 1   
    16   11   18 1   
    17   12   13 1   
    18   12   14 1   
    19   19   20 1   
    20   19   27 1   
    21   20   21 1   
    22   20   23 1   
    23   20   28 1   
    24   21   22 2   
    25   21   38 1   
    26   23   24 1   
    27   23   25 1   
    28   23   29 1   
    29   24   26 1   
    30   24   30 1   
    31   24   31 1   
    32   25   32 1   
    33   25   33 1   
    34   25   34 1   
    35   26   35 1   
    36   26   36 1   
    37   26   37 1   
    38   38   39 1   
    39   38   46 1   
    40   39   40 1   
    41   39   42 1   
    42   39   47 1   
    43   40   41 2   
    44   40   50 1   
    45   42   43 1   
    46   42   48 1   
    47   42   49 1   
    48   43   44 1   
    49   43   45 1   
    50   50   51 1   
    51   50   54 1   
    52   51   52 1   
    53   51   55 1   
    54   51   56 1   
    55   52   53 2   
    56   52   57 1   
    57   57   58 1   
    58   57   65 1   
    59   58   59 1   
    60   58   61 1   
    61   58   66 1   
    62   59   60 2   
    63   59   69 1   
    64   61   62 1   
    65   61   67 1   
    66   61   68 1   
    67   62   63 1   
    68   62   64 1   
    69   69   70 1   
    70   69   73 1   
    71   70   71 1   
    72   70   74 1   
    73   70   75 1   
    74   71   72 2   
    75   71   76 1   
    76   76   77 1   
    77   76   85 1   
    78   77   78 1   
    79   77   80 1   
    80   77   86 1   
    81   78   79 2   
    82   78   93 1   
    83   80   81 1   
    84   80   87 1   
    85   80   88 1   
    86   81   82 1   
    87   81   89 1   
    88   81   90 1   
    89   82   83 1   
    90   82   84 2   
    91   83   91 1   
    92   83   92 1   
    93   93   94 1   
    94   93  100 1   
    95   94   95 1   
    96   94   97 1   
    97   94  101 1   
    98   95   96 2   
    99   95  109 1   
   100   97   98 1   
   101   97   99 1   
   102   97  102 1   
   103   98  103 1   
   104   98  104 1   
   105   98  105 1   
   106   99  106 1   
   107   99  107 1   
   108   99  108 1   
   109  109  110 1   
   110  109  117 1   
   111  110  111 1   
   112  110  113 1   
   113  110  118 1   
   114  111  112 2   
   115  111  123 1   
   116  113  114 1   
   117  113  119 1   
   118  113  120 1   
   119  114  115 1   
   120  114  116 2   
   121  115  121 1   
   122  115  122 1   
   123  123  124 1   
   124  123  135 1   
   125  124  125 1   
   126  124  127 1   
   127  124  136 1   
   128  125  126 2   
   129  125  144 1   
   130  127  128 1   
   131  127  137 1   
   132  127  138 1   
   133  128  129 ar  
   134  128  130 ar  
   135  129  131 ar  
   136  129  139 1   
   137  130  132 ar  
   138  130  140 1   
   139  131  133 ar  
   140  131  141 1   
   141  132  133 ar  
   142  132  142 1   
   143  133  134 1   
   144  134  143 1   
   145  144  145 1   
   146  144  153 1   
   147  145  146 1   
   148  145  148 1   
   149  145  154 1   
   150  146  147 2   
   151  146  159 1   
   152  148  149 1   
   153  148  155 1   
   154  148  156 1   
   155  149  150 1   
   156  149  157 1   
   157  149  158 1   
   158  150  151 1   
   159  150  152 1   
   160  159  160 1   
   161  159  168 1   
   162  160  161 1   
   163  160  163 1   
   164  160  169 1   
   165  161  162 2   
   166  161  174 1   
   167  163  164 1   
   168  163  170 1   
   169  163  171 1   
   170  164  165 1   
   171  164  172 1   
   172  164  173 1   
   173  165  166 1   
   174  165  167 1   
   175  174  175 1   
   176  174  179 1   
   177  175  176 1   
   178  175  177 1   
   179  175  178 1   
   180  181  182 1   
   181  181  183 1   
   182  184  185 1   
   183  184  186 1   
@<TRIPOS>SUBSTRUCTURE
     1 MOL         1 TEMP              0 ****  ****    0 ROOT
