@<TRIPOS>MOLECULE
MOL
  189   185     1     0     0
SMALL
resp


@<TRIPOS>ATOM
      1 C1         -1.0680    1.7210    6.5820 c3        1 MOL     -0.313909
      2 C2         -1.1080    1.6680    5.0810 c         1 MOL      0.745905
      3 O1         -0.1370    2.0460    4.3840 o         1 MOL     -0.651439
      4 H1         -0.7750    0.7460    6.9720 hc        1 MOL      0.080773
      5 H2         -0.3460    2.4720    6.9010 hc        1 MOL      0.080773
      6 H3         -2.0560    1.9810    6.9630 hc        1 MOL      0.080773
      7 N1         -2.2370    1.3380    4.5030 n         1 MOL     -0.574062
      8 C3         -2.4580    1.4030    3.0640 c3        1 MOL      0.104185
      9 C4         -2.5170    2.9260    2.6850 c         1 MOL      0.549064
     10 O2         -3.3500    3.6290    3.2700 o         1 MOL     -0.558915
     11 C5         -3.7480    0.6620    2.7970 c3        1 MOL     -0.142076
     12 C6         -4.1870    0.4770    1.3860 c         1 MOL      0.773608
     13 O3         -5.0800   -0.3640    1.0960 o         1 MOL     -0.652053
     14 O4         -3.5050    1.0150    0.4700 o         1 MOL     -0.652053
     15 H4         -3.0570    1.3610    5.0870 hn        1 MOL      0.321588
     16 H5         -1.6250    0.8570    2.6370 h1        1 MOL     -0.048476
     17 H6         -4.5610    1.1530    3.3270 hc        1 MOL      0.031455
     18 H7         -3.5490   -0.3240    3.2080 hc        1 MOL      0.031455
     19 N2         -1.6000    3.4560    1.8480 n         1 MOL     -0.082147
     20 C7         -1.5220    4.8320    1.5330 c3        1 MOL     -0.252965
     21 C8         -2.4040    5.1810    0.3770 c         1 MOL      0.533949
     22 O5         -3.0550    6.1950    0.2830 o         1 MOL     -0.568492
     23 C9         -0.0330    5.2210    1.3540 c3        1 MOL     -0.046199
     24 C10         0.2150    6.7850    1.1210 c3        1 MOL     -0.041197
     25 C11         1.6230    7.3080    1.0690 c3        1 MOL     -0.023110
     26 C12         2.3030    6.8600   -0.1900 c3        1 MOL      0.147819
     27 N3          3.6780    7.3570   -0.2890 n4        1 MOL     -0.537333
     28 H8         -0.9710    2.7970    1.4210 hn        1 MOL      0.142527
     29 H9         -1.8760    5.2860    2.4560 h1        1 MOL      0.127419
     30 H10         0.1670    4.6620    0.4340 hc        1 MOL      0.069412
     31 H11         0.5310    4.8240    2.1930 hc        1 MOL      0.069412
     32 H12        -0.3270    7.2970    1.9160 hc        1 MOL      0.047474
     33 H13        -0.2800    7.1050    0.2000 hc        1 MOL      0.047474
     34 H14         2.1330    6.9210    1.9530 hc        1 MOL      0.032758
     35 H15         1.5400    8.3790    1.2170 hc        1 MOL      0.032758
     36 H16         1.7110    7.1950   -1.0400 hx        1 MOL      0.036067
     37 H17         2.2050    5.7790   -0.1280 hx        1 MOL      0.036067
     38 H18         3.7470    8.3450   -0.1070 hn        1 MOL      0.374809
     39 H19         4.2420    6.8200    0.3670 hn        1 MOL      0.374809
     40 H20         3.9120    7.1550   -1.2530 hn        1 MOL      0.374809
     41 N4         -2.5600    4.2920   -0.6070 n         1 MOL     -0.222818
     42 C13        -3.5000    4.4900   -1.7070 c3        1 MOL     -0.018204
     43 C14        -4.8840    3.9140   -1.6630 c         1 MOL      0.532727
     44 O6         -5.8040    4.4490   -2.2260 o         1 MOL     -0.558557
     45 C15        -2.9120    4.2070   -3.0970 c3        1 MOL     -0.413244
     46 C16        -2.4960    2.7790   -3.3710 c         1 MOL      0.691918
     47 O7         -2.0480    2.4200   -4.5080 o         1 MOL     -0.659000
     48 O8         -2.4720    1.9440   -2.4310 o         1 MOL     -0.659000
     49 H21        -2.0170    3.4390   -0.5500 hn        1 MOL      0.187894
     50 H22        -3.7810    5.5460   -1.7660 h1        1 MOL      0.099699
     51 H23        -2.2120    4.9850   -3.3790 hc        1 MOL      0.125436
     52 H24        -3.7320    4.4460   -3.7780 hc        1 MOL      0.125436
     53 N5         -5.0770    2.8380   -0.8880 n         1 MOL     -0.042606
     54 C17        -6.3840    2.4350   -0.3690 c3        1 MOL     -0.165909
     55 C18        -6.9850    1.3420   -1.2840 c         1 MOL      0.605422
     56 O9         -8.1190    1.5890   -1.8050 o         1 MOL     -0.558596
     57 H25        -4.2710    2.4340   -0.4250 hn        1 MOL      0.019132
     58 H26        -7.1440    3.2210   -0.4000 h1        1 MOL      0.080984
     59 H27        -6.2900    1.9800    0.6190 h1        1 MOL      0.080984
     60 N6         -6.2960    0.2050   -1.4480 n         1 MOL     -0.366566
     61 C19        -6.7220   -0.8960   -2.3050 c3        1 MOL      0.161381
     62 C20        -7.1220   -2.1280   -1.5450 c         1 MOL      0.441112
     63 O10        -7.7150   -3.0270   -2.1230 o         1 MOL     -0.547936
     64 C21        -5.6820   -1.1710   -3.4580 c3        1 MOL     -0.313666
     65 C22        -4.2880   -1.2950   -2.8670 c         1 MOL      0.842050
     66 O11        -3.3600   -0.7440   -3.4410 o         1 MOL     -0.735699
     67 O12        -4.1380   -1.8590   -1.7810 o         1 MOL     -0.735699
     68 H28        -5.4700    0.0180   -0.8840 hn        1 MOL      0.030202
     69 H29        -7.7040   -0.6260   -2.6990 h1        1 MOL      0.065948
     70 H30        -5.7640   -0.4200   -4.2430 hc        1 MOL      0.087401
     71 H31        -5.8290   -2.1500   -3.9240 hc        1 MOL      0.087401
     72 N7         -6.8500   -2.2050   -0.2320 n         1 MOL     -0.234464
     73 C23        -7.0830   -3.3370    0.6230 c3        1 MOL     -0.256304
     74 C24        -5.7730   -4.1390    0.8810 c         1 MOL      0.526318
     75 O13        -5.7780   -5.1500    1.6010 o         1 MOL     -0.586738
     76 H32        -6.2830   -1.5000    0.2090 hn        1 MOL      0.221030
     77 H33        -7.8820   -3.9520    0.1860 h1        1 MOL      0.134030
     78 H34        -7.3920   -2.9680    1.6010 h1        1 MOL      0.134030
     79 N8         -4.6420   -3.6520    0.4030 n         1 MOL     -0.128130
     80 C25        -3.3250   -4.3930    0.6000 c3        1 MOL     -0.295055
     81 C26        -2.0360   -3.5130    0.7190 c         1 MOL      0.717904
     82 O14        -2.0540   -2.2860    0.5310 o         1 MOL     -0.676820
     83 C27        -3.1470   -5.3850   -0.5090 c3        1 MOL      0.409029
     84 C28        -4.1360   -6.5930   -0.6420 c3        1 MOL     -0.582119
     85 O15        -3.0950   -4.7150   -1.7720 oh        1 MOL     -0.626995
     86 H35        -4.7380   -2.8270   -0.1700 hn        1 MOL      0.167462
     87 H36        -3.4640   -5.0060    1.4940 h1        1 MOL      0.121383
     88 H37        -2.1640   -5.8530   -0.3990 h1        1 MOL      0.034425
     89 H38        -3.7690   -4.0400   -1.7710 ho        1 MOL      0.395212
     90 H39        -5.0370   -6.0930   -0.9740 hc        1 MOL      0.161331
     91 H40        -3.7030   -7.3340   -1.3150 hc        1 MOL      0.161331
     92 H41        -4.4320   -7.0390    0.3050 hc        1 MOL      0.161331
     93 N9         -0.9050   -4.1870    0.9050 n         1 MOL     -0.498607
     94 C29         0.3020   -3.4620    1.3100 c3        1 MOL      0.154779
     95 C30         1.4660   -3.8430    0.3440 c         1 MOL      0.353969
     96 O16         1.9340   -5.0210    0.2540 o         1 MOL     -0.541447
     97 C31         0.6590   -3.8770    2.8170 c3        1 MOL      0.025074
     98 C32        -0.4500   -3.3170    3.7730 c3        1 MOL     -0.235504
     99 C33         2.0320   -3.3150    3.3180 c3        1 MOL     -0.086639
    100 C34        -0.7310   -1.7850    3.8410 c3        1 MOL      0.093783
    101 H42        -0.9530   -5.1530    1.1950 hn        1 MOL      0.278042
    102 H43         0.1820   -2.3790    1.2770 h1        1 MOL      0.064564
    103 H44         0.7190   -4.9620    2.8880 hc        1 MOL      0.042408
    104 H45        -0.2890   -3.7010    4.7800 hc        1 MOL      0.057269
    105 H46        -1.4170   -3.7530    3.5240 hc        1 MOL      0.057269
    106 H47         2.2000   -3.3450    4.3920 hc        1 MOL      0.005858
    107 H48         2.8350   -3.8540    2.8010 hc        1 MOL      0.005858
    108 H49         2.0940   -2.2930    2.9400 hc        1 MOL      0.005858
    109 H50        -1.2120   -1.4550    2.9220 hc        1 MOL      0.009743
    110 H51        -1.3710   -1.5150    4.6830 hc        1 MOL      0.009743
    111 H52         0.1290   -1.1530    4.0840 hc        1 MOL      0.009743
    112 N10         1.8510   -2.9100   -0.4500 n         1 MOL     -0.031252
    113 C35         3.0190   -2.9510   -1.3100 c3        1 MOL     -0.124225
    114 C36         4.3370   -2.7770   -0.5810 c         1 MOL      0.390144
    115 O17         4.2950   -2.2950    0.5950 o         1 MOL     -0.309845
    116 C37         3.0560   -1.8900   -2.4130 c3        1 MOL      0.238386
    117 C38         1.8880   -2.0570   -3.3800 c3        1 MOL     -0.456956
    118 O18         2.8880   -0.5980   -1.7780 oh        1 MOL     -0.601616
    119 H53         1.2500   -2.1060   -0.5120 hn        1 MOL      0.170575
    120 H54         3.0860   -3.9620   -1.7280 h1        1 MOL      0.070118
    121 H55         4.0280   -1.9960   -2.9030 h1        1 MOL      0.004249
    122 H56         2.0080   -0.6150   -1.4010 ho        1 MOL      0.399096
    123 H57         2.0400   -2.9680   -3.9720 hc        1 MOL      0.139997
    124 H58         1.0330   -2.0080   -2.7060 hc        1 MOL      0.139997
    125 H59         1.8670   -1.2510   -4.1160 hc        1 MOL      0.139997
    126 N11         5.4750   -3.0760   -1.1610 n         1 MOL     -0.383753
    127 C39         6.8040   -2.9950   -0.5100 c3        1 MOL      0.037183
    128 C40         7.0560   -1.6830    0.2270 c         1 MOL      0.135707
    129 O19         7.6880   -1.7910    1.3060 o         1 MOL     -0.457894
    130 C41         7.9260   -3.1840   -1.5470 c3        1 MOL      0.230030
    131 C42         8.2590   -4.5330   -2.0530 c3        1 MOL     -0.446963
    132 O20         7.7180   -2.3990   -2.6620 oh        1 MOL     -0.623578
    133 H60         5.4220   -3.5030   -2.0810 hn        1 MOL      0.321224
    134 H61         6.9620   -3.8270    0.1670 h1        1 MOL      0.135700
    135 H62         8.8730   -2.9310   -1.0580 h1        1 MOL      0.053652
    136 H63         8.5810   -2.2980   -3.0870 ho        1 MOL      0.405573
    137 H64         7.4040   -4.9020   -2.6180 hc        1 MOL      0.128570
    138 H65         9.1960   -4.6070   -2.6080 hc        1 MOL      0.128570
    139 H66         8.3560   -5.1680   -1.1730 hc        1 MOL      0.128570
    140 N12         6.6120   -0.5250   -0.3130 n         1 MOL      0.033371
    141 C43         6.8380    0.7970    0.2250 c3        1 MOL     -0.047912
    142 C44         5.8070    1.2680    1.2140 c         1 MOL      0.294105
    143 O21         6.1350    2.0100    2.1460 o         1 MOL     -0.504231
    144 C45         7.0280    1.7290   -0.9460 c3        1 MOL     -0.017695
    145 C46         8.1600    1.5140   -1.9620 c3        1 MOL      0.011156
    146 C47         7.9670    2.4860   -3.1700 c3        1 MOL     -0.120279
    147 C48         9.0410    2.2010   -4.1880 c3        1 MOL      0.116839
    148 N13         8.8390    2.8250   -5.5460 n4        1 MOL     -0.249736
    149 H67         6.0540   -0.5950   -1.1540 hn        1 MOL      0.235320
    150 H68         7.7990    0.7800    0.7400 h1        1 MOL      0.108271
    151 H69         7.1080    2.7030   -0.4720 hc        1 MOL      0.011093
    152 H70         6.0820    1.7310   -1.4920 hc        1 MOL      0.011093
    153 H71         8.0890    0.4610   -2.2290 hc        1 MOL      0.012982
    154 H72         9.0870    1.6630   -1.4230 hc        1 MOL      0.012982
    155 H73         8.0690    3.5050   -2.7870 hc        1 MOL      0.050595
    156 H74         6.9510    2.4160   -3.5440 hc        1 MOL      0.050595
    157 H75         9.0440    1.1180   -4.3080 hx        1 MOL      0.051675
    158 H76        10.0280    2.4650   -3.8090 hx        1 MOL      0.051675
    159 H77         7.8860    2.7440   -5.8520 hn        1 MOL      0.259753
    160 H78         9.0840    3.7800   -5.3400 hn        1 MOL      0.259753
    161 H79         9.4700    2.5420   -6.2860 hn        1 MOL      0.259753
    162 N14         4.6770    0.6160    1.2270 n         1 MOL     -0.059683
    163 C49         3.6800    0.6140    2.3770 c3        1 MOL     -0.079612
    164 C50         4.2370   -0.0730    3.6160 c         1 MOL      0.466636
    165 O22         4.2220    0.4940    4.7030 o         1 MOL     -0.529473
    166 C51         2.2600    0.2190    2.0150 c3        1 MOL      0.191601
    167 C52         1.6650    1.2380    1.0050 c3        1 MOL      0.082752
    168 C53         0.4120    0.6960    0.2720 c         1 MOL      0.528641
    169 O23         0.4450   -0.3750   -0.3430 o         1 MOL     -0.632677
    170 O24        -0.5720    1.4240    0.0810 o         1 MOL     -0.632677
    171 H80         4.5610   -0.1320    0.5670 hn        1 MOL      0.029391
    172 H81         3.5510    1.6520    2.6890 h1        1 MOL      0.071063
    173 H82         1.6780    0.1560    2.9480 hc        1 MOL     -0.020501
    174 H83         2.2980   -0.7760    1.5640 hc        1 MOL     -0.020501
    175 H84         2.5000    1.4020    0.3280 hc        1 MOL     -0.068923
    176 H85         1.4880    2.2190    1.4620 hc        1 MOL     -0.068923
    177 N15         4.9280   -1.1910    3.3180 n         1 MOL     -0.009818
    178 C54         5.5930   -1.8770    4.4060 c3        1 MOL     -0.509109
    179 H86         5.8590   -2.8860    4.0900 h1        1 MOL      0.166000
    180 H87         6.4980   -1.3340    4.6800 h1        1 MOL      0.166000
    181 H88         4.9260   -1.9290    5.2650 h1        1 MOL      0.166000
    182 H89         4.7750   -1.4980    2.3620 hn        1 MOL      0.117726
    183 Ca1        -1.9960   -0.2320   -1.2050 Ca        1 MOL      1.776235
    184 O25        -0.3710    0.4220   -3.1330 oh        1 MOL     -0.859615
    185 H90         0.2380    0.4940   -3.8700 ho        1 MOL      0.399093
    186 H91        -1.1380    0.9340   -3.4210 ho        1 MOL      0.399093
    187 O26        -1.2170   -2.5330   -2.8150 oh        1 MOL     -0.859615
    188 H92        -1.5500   -2.1510   -3.6190 ho        1 MOL      0.399093
    189 H93        -1.7450   -3.3110   -2.6760 ho        1 MOL      0.399093
@<TRIPOS>BOND
     1    1    2 1   
     2    1    4 1   
     3    1    5 1   
     4    1    6 1   
     5    2    3 2   
     6    2    7 1   
     7    7    8 1   
     8    7   15 1   
     9    8    9 1   
    10    8   11 1   
    11    8   16 1   
    12    9   10 2   
    13    9   19 1   
    14   11   12 1   
    15   11   17 1   
    16   11   18 1   
    17   12   13 1   
    18   12   14 1   
    19   19   20 1   
    20   19   28 1   
    21   20   21 1   
    22   20   23 1   
    23   20   29 1   
    24   21   22 2   
    25   21   41 1   
    26   23   24 1   
    27   23   30 1   
    28   23   31 1   
    29   24   25 1   
    30   24   32 1   
    31   24   33 1   
    32   25   26 1   
    33   25   34 1   
    34   25   35 1   
    35   26   27 1   
    36   26   36 1   
    37   26   37 1   
    38   27   38 1   
    39   27   39 1   
    40   27   40 1   
    41   41   42 1   
    42   41   49 1   
    43   42   43 1   
    44   42   45 1   
    45   42   50 1   
    46   43   44 2   
    47   43   53 1   
    48   45   46 1   
    49   45   51 1   
    50   45   52 1   
    51   46   47 1   
    52   46   48 1   
    53   53   54 1   
    54   53   57 1   
    55   54   55 1   
    56   54   58 1   
    57   54   59 1   
    58   55   56 2   
    59   55   60 1   
    60   60   61 1   
    61   60   68 1   
    62   61   62 1   
    63   61   64 1   
    64   61   69 1   
    65   62   63 2   
    66   62   72 1   
    67   64   65 1   
    68   64   70 1   
    69   64   71 1   
    70   65   66 1   
    71   65   67 1   
    72   72   73 1   
    73   72   76 1   
    74   73   74 1   
    75   73   77 1   
    76   73   78 1   
    77   74   75 2   
    78   74   79 1   
    79   79   80 1   
    80   79   86 1   
    81   80   81 1   
    82   80   83 1   
    83   80   87 1   
    84   81   82 2   
    85   81   93 1   
    86   83   84 1   
    87   83   85 1   
    88   83   88 1   
    89   84   90 1   
    90   84   91 1   
    91   84   92 1   
    92   85   89 1   
    93   93   94 1   
    94   93  101 1   
    95   94   95 1   
    96   94   97 1   
    97   94  102 1   
    98   95   96 2   
    99   95  112 1   
   100   97   98 1   
   101   97   99 1   
   102   97  103 1   
   103   98  100 1   
   104   98  104 1   
   105   98  105 1   
   106   99  106 1   
   107   99  107 1   
   108   99  108 1   
   109  100  109 1   
   110  100  110 1   
   111  100  111 1   
   112  112  113 1   
   113  112  119 1   
   114  113  114 1   
   115  113  116 1   
   116  113  120 1   
   117  114  115 2   
   118  114  126 1   
   119  116  117 1   
   120  116  118 1   
   121  116  121 1   
   122  117  123 1   
   123  117  124 1   
   124  117  125 1   
   125  118  122 1   
   126  126  127 1   
   127  126  133 1   
   128  127  128 1   
   129  127  130 1   
   130  127  134 1   
   131  128  129 2   
   132  128  140 1   
   133  130  131 1   
   134  130  132 1   
   135  130  135 1   
   136  131  137 1   
   137  131  138 1   
   138  131  139 1   
   139  132  136 1   
   140  140  141 1   
   141  140  149 1   
   142  141  142 1   
   143  141  144 1   
   144  141  150 1   
   145  142  143 2   
   146  142  162 1   
   147  144  145 1   
   148  144  151 1   
   149  144  152 1   
   150  145  146 1   
   151  145  153 1   
   152  145  154 1   
   153  146  147 1   
   154  146  155 1   
   155  146  156 1   
   156  147  148 1   
   157  147  157 1   
   158  147  158 1   
   159  148  159 1   
   160  148  160 1   
   161  148  161 1   
   162  162  163 1   
   163  162  171 1   
   164  163  164 1   
   165  163  166 1   
   166  163  172 1   
   167  164  165 2   
   168  164  177 1   
   169  166  167 1   
   170  166  173 1   
   171  166  174 1   
   172  167  168 1   
   173  167  175 1   
   174  167  176 1   
   175  168  169 1   
   176  168  170 1   
   177  177  178 1   
   178  177  182 1   
   179  178  179 1   
   180  178  180 1   
   181  178  181 1   
   182  184  185 1   
   183  184  186 1   
   184  187  188 1   
   185  187  189 1   
@<TRIPOS>SUBSTRUCTURE
     1 MOL         1 TEMP              0 ****  ****    0 ROOT
