@<TRIPOS>MOLECULE
MOL
  186   183     1     0     0
SMALL
resp


@<TRIPOS>ATOM
      1 C1          0.6410   -1.0350    6.3920 c3        1 MOL     -0.295186
      2 C2          1.0730   -1.2810    4.9070 c         1 MOL      0.790161
      3 O1          0.2320   -1.2280    4.0130 o         1 MOL     -0.594613
      4 H1          1.3720   -0.3910    6.8810 hc        1 MOL      0.062788
      5 H2         -0.3370   -0.5540    6.4120 hc        1 MOL      0.062788
      6 H3          0.5890   -1.9880    6.9180 hc        1 MOL      0.062788
      7 N1          2.2920   -1.4910    4.6270 n         1 MOL     -0.685810
      8 C3          2.8280   -1.6750    3.2840 c3        1 MOL      0.372759
      9 C4          3.0570   -3.1960    2.9010 c         1 MOL      0.552645
     10 O2          3.4320   -3.9650    3.7670 o         1 MOL     -0.609805
     11 C5          4.0990   -0.7790    3.0840 c3        1 MOL     -0.252960
     12 C6          4.6760   -0.7360    1.6940 c         1 MOL      0.774819
     13 O3          5.8820   -0.7020    1.5820 o         1 MOL     -0.700893
     14 O4          3.9260   -0.9520    0.7590 o         1 MOL     -0.700893
     15 H4          3.0020   -1.4500    5.3480 hn        1 MOL      0.312820
     16 H5          2.0700   -1.3050    2.5960 h1        1 MOL      0.011044
     17 H6          4.8800   -1.0970    3.7780 hc        1 MOL      0.026229
     18 H7          3.8170    0.2460    3.3340 hc        1 MOL      0.026229
     19 N2          2.7290   -3.6390    1.6520 n         1 MOL     -0.220923
     20 C7          2.7890   -5.0240    1.1610 c3        1 MOL     -0.043054
     21 C8          3.6230   -5.0740   -0.1790 c         1 MOL      0.491823
     22 O5          4.5160   -5.9460   -0.2840 o         1 MOL     -0.606588
     23 C9          1.4200   -5.6740    0.9070 c3        1 MOL      0.191825
     24 C10         0.6810   -5.7860    2.2870 c3        1 MOL      0.094113
     25 C11         1.4700   -7.0610    0.2420 c3        1 MOL     -0.469581
     26 C12        -0.7740   -6.0420    2.0330 c3        1 MOL     -0.154993
     27 H8          2.3640   -2.9880    0.9700 hn        1 MOL     -0.057498
     28 H9          3.2990   -5.6990    1.8460 h1        1 MOL      0.066222
     29 H10         0.8310   -4.9980    0.2910 hc        1 MOL      0.029484
     30 H11         0.7560   -4.9160    2.9390 hc        1 MOL     -0.012774
     31 H12         1.0450   -6.6560    2.8370 hc        1 MOL     -0.012774
     32 H13         0.4790   -7.5130    0.1520 hc        1 MOL      0.110719
     33 H14         1.8330   -6.9770   -0.7770 hc        1 MOL      0.110719
     34 H15         2.1790   -7.7240    0.7400 hc        1 MOL      0.110719
     35 H16        -1.2380   -5.5980    2.9100 hc        1 MOL      0.026359
     36 H17        -1.1880   -5.5050    1.1920 hc        1 MOL      0.026359
     37 H18        -1.0740   -7.0900    1.9380 hc        1 MOL      0.026359
     38 N3          3.4170   -4.1870   -1.0980 n         1 MOL     -0.249538
     39 C13         4.2960   -4.0670   -2.3050 c3        1 MOL      0.035133
     40 C14         5.6220   -3.2460   -2.2150 c         1 MOL      0.503671
     41 O6          6.2390   -2.8240   -3.1720 o         1 MOL     -0.541942
     42 C15         3.4290   -3.8430   -3.5810 c3        1 MOL     -0.278378
     43 C16         2.5640   -2.5650   -3.4890 c         1 MOL      0.766672
     44 O7          2.8310   -1.8040   -2.4890 o         1 MOL     -0.688669
     45 O8          1.7510   -2.2230   -4.4240 o         1 MOL     -0.688669
     46 H19         2.6900   -3.5160   -0.9600 hn        1 MOL      0.210709
     47 H20         4.6940   -5.0630   -2.4830 h1        1 MOL      0.077491
     48 H21         2.7310   -4.6760   -3.6450 hc        1 MOL      0.072347
     49 H22         4.0390   -3.6820   -4.4630 hc        1 MOL      0.072347
     50 N4          5.9850   -2.8080   -1.0020 n         1 MOL     -0.354907
     51 C17         7.4010   -2.5940   -0.6940 c3        1 MOL     -0.083964
     52 C18         7.7830   -1.1450   -1.0220 c         1 MOL      0.492816
     53 O9          8.9450   -0.7570   -0.9790 o         1 MOL     -0.632736
     54 H23         5.2700   -2.6930   -0.3070 hn        1 MOL      0.270053
     55 H24         8.0390   -3.2940   -1.2350 h1        1 MOL      0.088365
     56 H25         7.6200   -2.8790    0.3390 h1        1 MOL      0.088365
     57 N5          6.8540   -0.3090   -1.4760 n         1 MOL     -0.097892
     58 C19         7.0920    1.0880   -1.9980 c3        1 MOL      0.001340
     59 C20         7.1910    2.2160   -1.0120 c         1 MOL      0.414734
     60 O10         7.4360    3.3500   -1.3650 o         1 MOL     -0.539411
     61 C21         6.1190    1.4260   -3.1330 c3        1 MOL     -0.427587
     62 C22         4.6770    1.5560   -2.6480 c         1 MOL      0.861283
     63 O11         4.3830    1.4020   -1.4170 o         1 MOL     -0.733845
     64 O12         3.7370    1.8190   -3.4370 o         1 MOL     -0.733845
     65 H26         5.9140   -0.6750   -1.4980 hn        1 MOL      0.141628
     66 H27         8.0630    1.0220   -2.4870 h1        1 MOL      0.090864
     67 H28         6.2010    0.5940   -3.8340 hc        1 MOL      0.119394
     68 H29         6.3800    2.4140   -3.5120 hc        1 MOL      0.119394
     69 N6          6.8980    1.8870    0.2620 n         1 MOL     -0.196851
     70 C23         6.7930    2.7530    1.4110 c3        1 MOL     -0.188851
     71 C24         5.5430    3.7160    1.4750 c         1 MOL      0.528126
     72 O13         5.5280    4.6900    2.2070 o         1 MOL     -0.607970
     73 H30         6.7650    0.9060    0.4340 hn        1 MOL      0.222462
     74 H31         7.7130    3.3070    1.5700 h1        1 MOL      0.090820
     75 H32         6.5990    2.0440    2.2220 h1        1 MOL      0.090820
     76 N7          4.5290    3.5120    0.6550 n         1 MOL     -0.184748
     77 C25         3.2500    4.2070    0.8150 c3        1 MOL     -0.014354
     78 C26         2.1270    3.2220    1.1620 c         1 MOL      0.705290
     79 O14         2.3050    2.0710    0.8050 o         1 MOL     -0.666671
     80 C27         2.8930    5.1170   -0.3270 c3        1 MOL      0.003276
     81 C28         3.8670    6.3440   -0.4980 c3        1 MOL     -0.118056
     82 C29         3.4240    7.1210   -1.7340 c         1 MOL      0.544536
     83 N8          4.1820    7.0400   -2.7930 n         1 MOL     -0.731260
     84 O15         2.4160    7.8190   -1.7240 o         1 MOL     -0.573758
     85 H33         4.5430    2.7380    0.0090 hn        1 MOL      0.154940
     86 H34         3.3820    4.8290    1.7020 h1        1 MOL      0.042901
     87 H35         1.8940    5.5310   -0.2030 hc        1 MOL      0.045826
     88 H36         3.0120    4.4690   -1.1910 hc        1 MOL      0.045826
     89 H37         4.9250    6.1310   -0.6530 hc        1 MOL      0.049039
     90 H38         3.8200    7.0150    0.3600 hc        1 MOL      0.049039
     91 H39         5.0690    6.5450   -2.7360 hn        1 MOL      0.353794
     92 H40         3.8470    7.5830   -3.5720 hn        1 MOL      0.353794
     93 N9          1.1050    3.7620    1.9010 n         1 MOL     -0.638385
     94 C30        -0.2020    3.1400    1.9960 c3        1 MOL      0.141103
     95 C31        -1.2030    3.6390    0.9600 c         1 MOL      0.411882
     96 O16        -1.5150    4.8600    0.9640 o         1 MOL     -0.579143
     97 C32        -0.8610    3.3280    3.4390 c3        1 MOL      0.397950
     98 C33        -1.8490    2.1740    3.6730 c3        1 MOL     -0.433937
     99 C34         0.0180    3.5260    4.6290 c3        1 MOL     -0.433937
    100 H41         1.1190    4.7580    2.0470 hn        1 MOL      0.314242
    101 H42         0.0310    2.0910    1.7910 h1        1 MOL      0.129270
    102 H43        -1.4290    4.2520    3.3740 hc        1 MOL     -0.052068
    103 H44        -1.2260    1.2860    3.7550 hc        1 MOL      0.089734
    104 H45        -2.4110    2.2780    4.6030 hc        1 MOL      0.089734
    105 H46        -2.5230    2.2200    2.8170 hc        1 MOL      0.089734
    106 H47        -0.6230    3.8430    5.4610 hc        1 MOL      0.089734
    107 H48         0.6440    2.6410    4.7260 hc        1 MOL      0.089734
    108 H49         0.6390    4.3840    4.4100 hc        1 MOL      0.089734
    109 N10        -1.7080    2.6550    0.2270 n         1 MOL     -0.188204
    110 C35        -2.8420    2.8810   -0.7180 c3        1 MOL      0.088770
    111 C36        -4.1420    2.4520   -0.0360 c         1 MOL      0.448080
    112 O17        -4.1040    1.7590    0.9710 o         1 MOL     -0.355372
    113 C37        -2.3600    2.2900   -2.1010 c3        1 MOL     -0.248896
    114 C38        -2.8960    0.8920   -2.4360 c         1 MOL      0.500577
    115 N11        -2.2760   -0.0940   -1.9050 n         1 MOL     -0.544668
    116 O18        -3.8400    0.6940   -3.2360 o         1 MOL     -0.573415
    117 H50        -1.4370    1.7230    0.5210 hn        1 MOL      0.083992
    118 H51        -2.9730    3.9570   -0.8730 h1        1 MOL      0.057029
    119 H52        -1.2740    2.3730   -2.2030 hc        1 MOL      0.101249
    120 H53        -2.7420    2.9670   -2.8600 hc        1 MOL      0.101249
    121 H54        -1.4430    0.0240   -1.3460 hn        1 MOL      0.339686
    122 H55        -2.5120   -1.0070   -2.2700 hn        1 MOL      0.339686
    123 N12        -5.2930    2.7280   -0.6620 n         1 MOL     -0.550431
    124 C39        -6.6820    2.2230   -0.2550 c3        1 MOL      0.250122
    125 C40        -6.7790    0.6840   -0.0760 c         1 MOL      0.432850
    126 O19        -7.3450    0.2870    0.9470 o         1 MOL     -0.530493
    127 C41        -7.7450    2.5570   -1.3400 c3        1 MOL     -0.322974
    128 C42        -9.1040    1.9540   -1.1860 ca        1 MOL      0.002914
    129 C43       -10.0150    2.5120   -0.2690 ca        1 MOL     -0.092689
    130 C44        -9.5020    0.8770   -1.9540 ca        1 MOL     -0.092689
    131 C45       -11.3490    2.1100   -0.2410 ca        1 MOL     -0.282069
    132 C46       -10.7910    0.4200   -1.8510 ca        1 MOL     -0.282069
    133 C47       -11.7340    1.0420   -1.0140 ca        1 MOL      0.369946
    134 O20       -13.0530    0.7540   -0.9820 oh        1 MOL     -0.507779
    135 H56        -5.1860    3.2850   -1.5040 hn        1 MOL      0.288205
    136 H57        -6.8550    2.7420    0.6910 h1        1 MOL      0.064523
    137 H58        -7.3100    2.3360   -2.3220 hc        1 MOL      0.105065
    138 H59        -7.8520    3.6310   -1.1900 hc        1 MOL      0.105065
    139 H60        -9.6850    3.3500    0.3250 ha        1 MOL      0.116400
    140 H61        -8.7520    0.3740   -2.5510 ha        1 MOL      0.116400
    141 H62       -12.0380    2.6440    0.4030 ha        1 MOL      0.142931
    142 H63       -11.1580   -0.4000   -2.4480 ha        1 MOL      0.142931
    143 H64       -13.1900    0.1150   -1.6880 ho        1 MOL      0.358902
    144 N13        -6.1360   -0.0430   -0.9220 n         1 MOL     -0.034780
    145 C48        -6.1930   -1.5630   -0.9250 c3        1 MOL      0.029086
    146 C49        -5.3880   -2.1600    0.2770 c         1 MOL      0.266084
    147 O21        -5.7820   -3.1950    0.8050 o         1 MOL     -0.501605
    148 C50        -5.7530   -2.1820   -2.2350 c3        1 MOL     -0.000334
    149 C51        -5.7890   -3.7100   -2.1750 c3        1 MOL     -0.253933
    150 C52        -5.5690   -4.2240   -3.6330 c         1 MOL      0.680753
    151 O22        -4.3690   -4.4470   -4.0310 o         1 MOL     -0.733797
    152 O23        -6.5920   -4.5220   -4.3590 o         1 MOL     -0.733797
    153 H65        -5.6320    0.3790   -1.7000 hn        1 MOL      0.101262
    154 H66        -7.2270   -1.8660   -0.8140 h1        1 MOL      0.073998
    155 H67        -4.6970   -1.9310   -2.4080 hc        1 MOL      0.032972
    156 H68        -6.3850   -1.8760   -3.0710 hc        1 MOL      0.032972
    157 H69        -6.7270   -4.1310   -1.7880 hc        1 MOL      0.056592
    158 H70        -4.9420   -4.0800   -1.6100 hc        1 MOL      0.056592
    159 N14        -4.3830   -1.4380    0.7150 n         1 MOL      0.141486
    160 C53        -3.6850   -1.6250    1.9480 c3        1 MOL     -0.161951
    161 C54        -4.4930   -1.1180    3.1690 c         1 MOL      0.456430
    162 O24        -4.2590   -1.6070    4.3060 o         1 MOL     -0.560208
    163 C55        -2.3220   -0.9680    1.8110 c3        1 MOL      0.089759
    164 C56        -1.3370   -1.8690    1.1080 c3        1 MOL     -0.138613
    165 C57        -0.1300   -1.1540    0.5600 c         1 MOL      0.593793
    166 O25         0.9660   -1.7570    0.3850 o         1 MOL     -0.650193
    167 O26        -0.1910    0.0400    0.2620 o         1 MOL     -0.650193
    168 H71        -4.1060   -0.5790    0.2480 hn        1 MOL     -0.137030
    169 H72        -3.4560   -2.6620    2.1840 h1        1 MOL      0.090943
    170 H73        -1.8970   -0.7370    2.7850 hc        1 MOL      0.034044
    171 H74        -2.3280    0.0060    1.3100 hc        1 MOL      0.034044
    172 H75        -1.8620   -2.2870    0.2450 hc        1 MOL      0.070271
    173 H76        -0.9060   -2.5880    1.7970 hc        1 MOL      0.070271
    174 N15        -5.4360   -0.1630    2.9150 n         1 MOL     -0.022669
    175 C58        -6.3610    0.4670    3.8950 c3        1 MOL     -0.336653
    176 H77        -7.2990   -0.0890    3.9170 h1        1 MOL      0.114004
    177 H78        -5.9070    0.4520    4.8860 h1        1 MOL      0.114004
    178 H79        -6.5580    1.4970    3.5990 h1        1 MOL      0.114004
    179 H80        -5.5940    0.0980    1.9620 hn        1 MOL      0.007248
    180 Ca1         2.1720    0.1630   -0.9020 Ca        1 MOL      1.747852
    181 O27         0.7410   -0.1490   -3.1200 oh        1 MOL     -0.952972
    182 H81         1.1240   -0.9170   -3.5390 ho        1 MOL      0.434603
    183 H82         0.2310    0.2830   -3.8010 ho        1 MOL      0.434603
    184 O28         1.4190    2.6120   -2.2310 oh        1 MOL     -0.952972
    185 H83         0.8030    2.6750   -2.9560 ho        1 MOL      0.434603
    186 H84         2.2130    3.0410   -2.5440 ho        1 MOL      0.434603
@<TRIPOS>BOND
     1    1    2 1   
     2    1    4 1   
     3    1    5 1   
     4    1    6 1   
     5    2    3 2   
     6    2    7 1   
     7    7    8 1   
     8    7   15 1   
     9    8    9 1   
    10    8   11 1   
    11    8   16 1   
    12    9   10 2   
    13    9   19 1   
    14   11   12 1   
    15   11   17 1   
    16   11   18 1   
    17   12   13 1   
    18   12   14 1   
    19   19   20 1   
    20   19   27 1   
    21   20   21 1   
    22   20   23 1   
    23   20   28 1   
    24   21   22 2   
    25   21   38 1   
    26   23   24 1   
    27   23   25 1   
    28   23   29 1   
    29   24   26 1   
    30   24   30 1   
    31   24   31 1   
    32   25   32 1   
    33   25   33 1   
    34   25   34 1   
    35   26   35 1   
    36   26   36 1   
    37   26   37 1   
    38   38   39 1   
    39   38   46 1   
    40   39   40 1   
    41   39   42 1   
    42   39   47 1   
    43   40   41 2   
    44   40   50 1   
    45   42   43 1   
    46   42   48 1   
    47   42   49 1   
    48   43   44 1   
    49   43   45 1   
    50   50   51 1   
    51   50   54 1   
    52   51   52 1   
    53   51   55 1   
    54   51   56 1   
    55   52   53 2   
    56   52   57 1   
    57   57   58 1   
    58   57   65 1   
    59   58   59 1   
    60   58   61 1   
    61   58   66 1   
    62   59   60 2   
    63   59   69 1   
    64   61   62 1   
    65   61   67 1   
    66   61   68 1   
    67   62   63 1   
    68   62   64 1   
    69   69   70 1   
    70   69   73 1   
    71   70   71 1   
    72   70   74 1   
    73   70   75 1   
    74   71   72 2   
    75   71   76 1   
    76   76   77 1   
    77   76   85 1   
    78   77   78 1   
    79   77   80 1   
    80   77   86 1   
    81   78   79 2   
    82   78   93 1   
    83   80   81 1   
    84   80   87 1   
    85   80   88 1   
    86   81   82 1   
    87   81   89 1   
    88   81   90 1   
    89   82   83 1   
    90   82   84 2   
    91   83   91 1   
    92   83   92 1   
    93   93   94 1   
    94   93  100 1   
    95   94   95 1   
    96   94   97 1   
    97   94  101 1   
    98   95   96 2   
    99   95  109 1   
   100   97   98 1   
   101   97   99 1   
   102   97  102 1   
   103   98  103 1   
   104   98  104 1   
   105   98  105 1   
   106   99  106 1   
   107   99  107 1   
   108   99  108 1   
   109  109  110 1   
   110  109  117 1   
   111  110  111 1   
   112  110  113 1   
   113  110  118 1   
   114  111  112 2   
   115  111  123 1   
   116  113  114 1   
   117  113  119 1   
   118  113  120 1   
   119  114  115 1   
   120  114  116 2   
   121  115  121 1   
   122  115  122 1   
   123  123  124 1   
   124  123  135 1   
   125  124  125 1   
   126  124  127 1   
   127  124  136 1   
   128  125  126 2   
   129  125  144 1   
   130  127  128 1   
   131  127  137 1   
   132  127  138 1   
   133  128  129 ar  
   134  128  130 ar  
   135  129  131 ar  
   136  129  139 1   
   137  130  132 ar  
   138  130  140 1   
   139  131  133 ar  
   140  131  141 1   
   141  132  133 ar  
   142  132  142 1   
   143  133  134 1   
   144  134  143 1   
   145  144  145 1   
   146  144  153 1   
   147  145  146 1   
   148  145  148 1   
   149  145  154 1   
   150  146  147 2   
   151  146  159 1   
   152  148  149 1   
   153  148  155 1   
   154  148  156 1   
   155  149  150 1   
   156  149  157 1   
   157  149  158 1   
   158  150  151 1   
   159  150  152 1   
   160  159  160 1   
   161  159  168 1   
   162  160  161 1   
   163  160  163 1   
   164  160  169 1   
   165  161  162 2   
   166  161  174 1   
   167  163  164 1   
   168  163  170 1   
   169  163  171 1   
   170  164  165 1   
   171  164  172 1   
   172  164  173 1   
   173  165  166 1   
   174  165  167 1   
   175  174  175 1   
   176  174  179 1   
   177  175  176 1   
   178  175  177 1   
   179  175  178 1   
   180  181  182 1   
   181  181  183 1   
   182  184  185 1   
   183  184  186 1   
@<TRIPOS>SUBSTRUCTURE
     1 MOL         1 TEMP              0 ****  ****    0 ROOT
