@<TRIPOS>MOLECULE
MOL
  179   176     1     0     0
SMALL
resp


@<TRIPOS>ATOM
      1 C1          1.7900    2.6700    5.9620 c3        1 MOL     -0.269377
      2 C2          1.2800    2.4790    4.5370 c         1 MOL      0.687500
      3 O1          2.0480    2.6170    3.5810 o         1 MOL     -0.594775
      4 H1          1.0810    2.2290    6.6630 hc        1 MOL      0.070446
      5 H2          2.7580    2.1820    6.0710 hc        1 MOL      0.070446
      6 H3          1.8930    3.7340    6.1720 hc        1 MOL      0.070446
      7 N1         -0.0270    2.2160    4.4250 n         1 MOL     -0.491735
      8 C3         -0.7030    1.9340    3.1380 c3        1 MOL     -0.129291
      9 C4         -0.7550    3.3060    2.2840 c         1 MOL      0.467519
     10 O2         -1.8320    3.9750    2.2170 o         1 MOL     -0.433734
     11 C5         -2.1140    1.3480    3.3670 c3        1 MOL     -0.021745
     12 C6         -2.8660    1.1060    2.0270 c         1 MOL      0.655089
     13 O3         -2.2790    1.2510    0.9290 o         1 MOL     -0.739974
     14 O4         -4.0810    0.7440    2.1290 o         1 MOL     -0.739974
     15 H4         -0.5200    2.0600    5.2920 hn        1 MOL      0.313697
     16 H5         -0.1240    1.1910    2.5770 h1        1 MOL      0.103410
     17 H6         -2.7750    1.9660    3.9720 hc        1 MOL      0.045992
     18 H7         -1.9500    0.4370    3.9480 hc        1 MOL      0.045992
     19 N2          0.3180    3.5840    1.4950 n         1 MOL     -0.204462
     20 C7          0.5500    4.7500    0.6650 c3        1 MOL     -0.004686
     21 C8         -0.6290    5.2300   -0.0980 c         1 MOL      0.441248
     22 O5         -1.0830    6.3270    0.1920 o         1 MOL     -0.540697
     23 C9          1.7460    4.5720   -0.1920 c3        1 MOL      0.034104
     24 C10         2.3830    5.9400   -0.6410 c3        1 MOL     -0.448254
     25 C11         3.5280    5.6150   -1.5390 c3        1 MOL      0.109388
     26 C12         4.2720    6.8780   -2.0360 c3        1 MOL      0.005708
     27 N3          5.1640    6.4850   -3.1610 n4        1 MOL     -0.360488
     28 H8          1.1510    3.0280    1.6330 hn        1 MOL      0.187297
     29 H9          0.7350    5.5560    1.3660 h1        1 MOL      0.069441
     30 H10         1.4480    4.0250   -1.0940 hc        1 MOL      0.097665
     31 H11         2.5230    4.0090    0.3320 hc        1 MOL      0.097665
     32 H12         2.8150    6.4430    0.2170 hc        1 MOL      0.139156
     33 H13         1.6460    6.5260   -1.1850 hc        1 MOL      0.139156
     34 H14         3.3030    4.9700   -2.3950 hc        1 MOL      0.028821
     35 H15         4.2720    5.1090   -0.9340 hc        1 MOL      0.028821
     36 H16         4.8820    7.3310   -1.2570 hx        1 MOL      0.096285
     37 H17         3.5580    7.5810   -2.4520 hx        1 MOL      0.096285
     38 H18         5.6310    7.3290   -3.4600 hn        1 MOL      0.326335
     39 H19         5.8020    5.8170   -2.7750 hn        1 MOL      0.326335
     40 H20         4.6830    6.0750   -3.9490 hn        1 MOL      0.326335
     41 N4         -1.2500    4.4130   -0.9490 n         1 MOL     -0.292834
     42 C13        -2.3590    4.7760   -1.7840 c3        1 MOL      0.066213
     43 C14        -3.6660    4.5180   -1.0940 c         1 MOL      0.372810
     44 O6         -4.7280    4.7460   -1.6440 o         1 MOL     -0.520853
     45 C15        -2.3460    4.1540   -3.2280 c3        1 MOL     -0.285463
     46 C16        -2.4480    2.6320   -3.1460 c         1 MOL      0.830548
     47 O7         -2.2090    1.9660   -4.2130 o         1 MOL     -0.737905
     48 O8         -2.4850    1.9800   -2.1140 o         1 MOL     -0.737905
     49 H21        -0.9240    3.4530   -0.9880 hn        1 MOL      0.207943
     50 H22        -2.3570    5.8570   -1.9650 h1        1 MOL      0.089650
     51 H23        -1.3930    4.3290   -3.7220 hc        1 MOL      0.082336
     52 H24        -3.0980    4.5300   -3.9210 hc        1 MOL      0.082336
     53 N5         -3.6330    4.0200    0.2090 n         1 MOL      0.045862
     54 C17        -4.8020    3.7880    1.0020 c3        1 MOL     -0.341738
     55 C18        -5.7780    2.7780    0.4840 c         1 MOL      0.595729
     56 O9         -7.0060    2.9050    0.6930 o         1 MOL     -0.587649
     57 H25        -2.7110    3.8270    0.5770 hn        1 MOL      0.013944
     58 H26        -5.3830    4.7090    1.0460 h1        1 MOL      0.140111
     59 H27        -4.4740    3.4530    1.9840 h1        1 MOL      0.140111
     60 N6         -5.3310    1.7120   -0.2820 n         1 MOL     -0.185705
     61 C19        -6.2890    0.8340   -1.0180 c3        1 MOL     -0.145667
     62 C20        -6.9040   -0.2810   -0.0670 c         1 MOL      0.489602
     63 O10        -7.8390   -0.9640   -0.4990 o         1 MOL     -0.546173
     64 C21        -5.6400    0.3110   -2.2760 c3        1 MOL     -0.070375
     65 C22        -4.7190   -0.9030   -1.9990 c         1 MOL      0.304657
     66 N7         -5.1280   -2.0360   -2.5430 n         1 MOL     -0.505061
     67 O11        -3.8110   -0.9060   -1.1920 o         1 MOL     -0.581109
     68 H28        -4.3300    1.5770   -0.2110 hn        1 MOL      0.119321
     69 H29        -7.1310    1.4250   -1.3650 h1        1 MOL      0.134877
     70 H30        -5.0550    1.0460   -2.8330 hc        1 MOL      0.072044
     71 H31        -6.3860   -0.1170   -2.9470 hc        1 MOL      0.072044
     72 H32        -5.8360   -1.9930   -3.2690 hn        1 MOL      0.302389
     73 H33        -4.6490   -2.9120   -2.4250 hn        1 MOL      0.302389
     74 N8         -6.2510   -0.4510    1.0760 n         1 MOL     -0.292055
     75 C23        -6.6470   -1.5700    1.9480 c3        1 MOL     -0.087947
     76 C24        -5.6340   -2.7540    1.9670 c         1 MOL      0.500330
     77 O12        -6.0530   -3.7620    2.5430 o         1 MOL     -0.546634
     78 H34        -5.5070    0.1690    1.3780 hn        1 MOL      0.330089
     79 H35        -7.6510   -1.9380    1.7320 h1        1 MOL      0.090882
     80 H36        -6.6900   -1.2240    2.9850 h1        1 MOL      0.090882
     81 N9         -4.4060   -2.7260    1.3510 n         1 MOL     -0.273251
     82 C25        -3.2540   -3.5730    1.7800 c3        1 MOL     -0.064947
     83 C26        -1.8820   -2.9920    1.3340 c         1 MOL      0.430351
     84 O13        -1.8540   -2.0460    0.5110 o         1 MOL     -0.601694
     85 C27        -3.3950   -5.0360    1.1370 c3        1 MOL     -0.275320
     86 C28        -3.6220   -5.0600   -0.3570 ca        1 MOL      0.309184
     87 C29        -2.5800   -5.0290   -1.3630 ca        1 MOL     -0.384774
     88 C30        -4.9330   -5.0670   -0.8420 ca        1 MOL     -0.384774
     89 C31        -2.8980   -4.9740   -2.7370 ca        1 MOL     -0.078106
     90 C32        -5.2310   -5.0780   -2.2250 ca        1 MOL     -0.078106
     91 C33        -4.1800   -5.0730   -3.1400 ca        1 MOL      0.179948
     92 O14        -4.4170   -5.0040   -4.4630 oh        1 MOL     -0.455584
     93 H37        -4.1330   -1.9750    0.7410 hn        1 MOL      0.383504
     94 H38        -3.3240   -3.7210    2.8570 h1        1 MOL      0.110937
     95 H39        -4.3300   -5.3710    1.5870 hc        1 MOL      0.103080
     96 H40        -2.5470   -5.6750    1.3740 hc        1 MOL      0.103080
     97 H41        -1.5730   -5.0370   -0.9570 ha        1 MOL      0.203263
     98 H42        -5.7890   -5.0170   -0.1910 ha        1 MOL      0.203263
     99 H43        -2.1020   -4.9430   -3.4710 ha        1 MOL      0.119639
    100 H44        -6.2320   -5.0780   -2.6280 ha        1 MOL      0.119639
    101 H45        -3.5770   -4.7640   -4.8660 ho        1 MOL      0.327337
    102 N10        -0.7790   -3.4660    1.8770 n         1 MOL     -0.377684
    103 C34         0.5680   -2.9160    1.8310 c3        1 MOL     -0.010626
    104 C35         1.5320   -3.9030    1.1210 c         1 MOL      0.411848
    105 O15         1.5720   -5.1260    1.4360 o         1 MOL     -0.518765
    106 C36         1.0540   -2.7110    3.3420 c3        1 MOL      0.394884
    107 C37         0.0130   -1.9380    4.1680 c3        1 MOL      0.020549
    108 C38         2.3580   -1.9490    3.3170 c3        1 MOL     -0.571231
    109 C39         0.4460   -1.9560    5.6880 c3        1 MOL     -0.186393
    110 H46        -0.8490   -4.2210    2.5520 hn        1 MOL      0.275620
    111 H47         0.6360   -1.8920    1.4650 h1        1 MOL      0.081294
    112 H48         1.1850   -3.6650    3.8400 hc        1 MOL     -0.052347
    113 H49        -0.9830   -2.3770    4.1750 hc        1 MOL     -0.002187
    114 H50        -0.1180   -0.9310    3.7830 hc        1 MOL     -0.002187
    115 H51         2.2080   -0.9050    3.0720 hc        1 MOL      0.125250
    116 H52         2.8680   -2.1120    4.2780 hc        1 MOL      0.125250
    117 H53         2.9350   -2.4040    2.5080 hc        1 MOL      0.125250
    118 H54         0.3960   -2.9120    6.2040 hc        1 MOL      0.043824
    119 H55         1.4080   -1.5040    5.9350 hc        1 MOL      0.043824
    120 H56        -0.3220   -1.3670    6.1910 hc        1 MOL      0.043824
    121 N11         2.3320   -3.3250    0.2180 n         1 MOL     -0.305329
    122 C40         3.3830   -3.9630   -0.5830 c3        1 MOL      0.058887
    123 C41         4.7960   -3.5460   -0.0920 c         1 MOL      0.464095
    124 O16         4.9630   -2.5640    0.6950 o         1 MOL     -0.407564
    125 C42         3.2380   -3.7460   -2.0970 c3        1 MOL     -0.061961
    126 O17         3.3550   -2.3100   -2.1560 oh        1 MOL     -0.389737
    127 H57         2.2880   -2.3200    0.1440 hn        1 MOL      0.297952
    128 H58         3.4520   -5.0460   -0.4510 h1        1 MOL      0.058872
    129 H59         2.2510   -4.0380   -2.4620 h1        1 MOL      0.069344
    130 H60         3.8980   -4.3170   -2.7490 h1        1 MOL      0.069344
    131 H61         3.0650   -2.0380   -3.0340 ho        1 MOL      0.356611
    132 N12         5.7790   -4.3190   -0.5430 n         1 MOL     -0.446715
    133 C43         7.1780   -3.8890   -0.2720 c3        1 MOL      0.062903
    134 C44         7.5640   -2.4730   -0.8500 c         1 MOL      0.573648
    135 O18         8.3690   -1.8380   -0.2060 o         1 MOL     -0.481303
    136 C45         8.2050   -4.9240   -0.7410 c3        1 MOL     -0.378580
    137 H62         5.5460   -5.0340   -1.2150 hn        1 MOL      0.309295
    138 H63         7.2190   -3.8280    0.8180 h1        1 MOL      0.121359
    139 H64         8.1240   -5.2140   -1.7960 hc        1 MOL      0.121066
    140 H65         9.1890   -4.5240   -0.5030 hc        1 MOL      0.121066
    141 H66         8.0140   -5.8880   -0.2760 hc        1 MOL      0.121066
    142 N13         7.0000   -1.9850   -1.9960 n         1 MOL     -0.571996
    143 C46         7.3200   -0.6250   -2.5510 c3        1 MOL      0.308307
    144 C47         6.8660    0.4800   -1.5550 c         1 MOL      0.202581
    145 O19         7.5780    1.4120   -1.1610 o         1 MOL     -0.476608
    146 C48         6.8350   -0.4490   -3.9960 c3        1 MOL     -0.389611
    147 H67         6.3170   -2.5200   -2.5170 hn        1 MOL      0.267482
    148 H68         8.4000   -0.4510   -2.5600 h1        1 MOL      0.060948
    149 H69         7.3630    0.4280   -4.3720 hc        1 MOL      0.111811
    150 H70         7.1650   -1.3100   -4.5650 hc        1 MOL      0.111811
    151 H71         5.7420   -0.4880   -4.0240 hc        1 MOL      0.111811
    152 N14         5.6590    0.3980   -0.9910 n         1 MOL     -0.033488
    153 C49         5.1250    1.2300    0.1140 c3        1 MOL      0.052177
    154 C50         5.8010    1.0580    1.4160 c         1 MOL      0.393436
    155 O20         6.2360    2.0260    1.9930 o         1 MOL     -0.532583
    156 C51         3.6590    0.9260    0.1510 c3        1 MOL     -0.180858
    157 C52         2.8410    1.2000   -1.1150 c3        1 MOL      0.100036
    158 C53         1.3640    0.9830   -0.8860 c         1 MOL      0.513645
    159 O21         0.5350    1.7460   -1.5100 o         1 MOL     -0.692432
    160 O22         0.9270    0.0700   -0.1210 o         1 MOL     -0.692432
    161 H72         5.0650   -0.3180   -1.3690 hn        1 MOL      0.096192
    162 H73         5.1470    2.2910   -0.1640 h1        1 MOL      0.040250
    163 H74         3.1910    1.4350    0.9850 hc        1 MOL      0.076557
    164 H75         3.5700   -0.1540    0.2990 hc        1 MOL      0.076557
    165 H76         3.2170    0.4980   -1.8510 hc        1 MOL     -0.079543
    166 H77         3.1400    2.2110   -1.3940 hc        1 MOL     -0.079543
    167 N15         6.1760   -0.1600    1.7900 n         1 MOL     -0.011777
    168 C54         7.0110   -0.4460    2.9880 c3        1 MOL     -0.217901
    169 H78         6.3660   -0.7270    3.8210 h1        1 MOL      0.095141
    170 H79         7.6970   -1.2640    2.7680 h1        1 MOL      0.095141
    171 H80         7.5810    0.4440    3.2550 h1        1 MOL      0.095141
    172 H81         5.8120   -0.9210    1.2340 hn        1 MOL      0.037995
    173 Ca1        -1.4520   -0.0270   -1.1130 Ca        1 MOL      1.847432
    174 O23         0.2170   -1.9240   -2.1310 oh        1 MOL     -0.874959
    175 H82        -0.1010   -2.4270   -2.8730 ho        1 MOL      0.399959
    176 H83         1.1120   -2.2240   -2.0000 ho        1 MOL      0.399959
    177 O24        -2.2140   -0.5310   -3.8690 oh        1 MOL     -0.874959
    178 H84        -2.3580    0.4120   -3.9750 ho        1 MOL      0.399959
    179 H85        -2.6950   -0.9310   -4.5940 ho        1 MOL      0.399959
@<TRIPOS>BOND
     1    1    2 1   
     2    1    4 1   
     3    1    5 1   
     4    1    6 1   
     5    2    3 2   
     6    2    7 1   
     7    7    8 1   
     8    7   15 1   
     9    8    9 1   
    10    8   11 1   
    11    8   16 1   
    12    9   10 2   
    13    9   19 1   
    14   11   12 1   
    15   11   17 1   
    16   11   18 1   
    17   12   13 1   
    18   12   14 1   
    19   19   20 1   
    20   19   28 1   
    21   20   21 1   
    22   20   23 1   
    23   20   29 1   
    24   21   22 2   
    25   21   41 1   
    26   23   24 1   
    27   23   30 1   
    28   23   31 1   
    29   24   25 1   
    30   24   32 1   
    31   24   33 1   
    32   25   26 1   
    33   25   34 1   
    34   25   35 1   
    35   26   27 1   
    36   26   36 1   
    37   26   37 1   
    38   27   38 1   
    39   27   39 1   
    40   27   40 1   
    41   41   42 1   
    42   41   49 1   
    43   42   43 1   
    44   42   45 1   
    45   42   50 1   
    46   43   44 2   
    47   43   53 1   
    48   45   46 1   
    49   45   51 1   
    50   45   52 1   
    51   46   47 1   
    52   46   48 1   
    53   53   54 1   
    54   53   57 1   
    55   54   55 1   
    56   54   58 1   
    57   54   59 1   
    58   55   56 2   
    59   55   60 1   
    60   60   61 1   
    61   60   68 1   
    62   61   62 1   
    63   61   64 1   
    64   61   69 1   
    65   62   63 2   
    66   62   74 1   
    67   64   65 1   
    68   64   70 1   
    69   64   71 1   
    70   65   66 1   
    71   65   67 2   
    72   66   72 1   
    73   66   73 1   
    74   74   75 1   
    75   74   78 1   
    76   75   76 1   
    77   75   79 1   
    78   75   80 1   
    79   76   77 2   
    80   76   81 1   
    81   81   82 1   
    82   81   93 1   
    83   82   83 1   
    84   82   85 1   
    85   82   94 1   
    86   83   84 2   
    87   83  102 1   
    88   85   86 1   
    89   85   95 1   
    90   85   96 1   
    91   86   87 ar  
    92   86   88 ar  
    93   87   89 ar  
    94   87   97 1   
    95   88   90 ar  
    96   88   98 1   
    97   89   91 ar  
    98   89   99 1   
    99   90   91 ar  
   100   90  100 1   
   101   91   92 1   
   102   92  101 1   
   103  102  103 1   
   104  102  110 1   
   105  103  104 1   
   106  103  106 1   
   107  103  111 1   
   108  104  105 2   
   109  104  121 1   
   110  106  107 1   
   111  106  108 1   
   112  106  112 1   
   113  107  109 1   
   114  107  113 1   
   115  107  114 1   
   116  108  115 1   
   117  108  116 1   
   118  108  117 1   
   119  109  118 1   
   120  109  119 1   
   121  109  120 1   
   122  121  122 1   
   123  121  127 1   
   124  122  123 1   
   125  122  125 1   
   126  122  128 1   
   127  123  124 2   
   128  123  132 1   
   129  125  126 1   
   130  125  129 1   
   131  125  130 1   
   132  126  131 1   
   133  132  133 1   
   134  132  137 1   
   135  133  134 1   
   136  133  136 1   
   137  133  138 1   
   138  134  135 2   
   139  134  142 1   
   140  136  139 1   
   141  136  140 1   
   142  136  141 1   
   143  142  143 1   
   144  142  147 1   
   145  143  144 1   
   146  143  146 1   
   147  143  148 1   
   148  144  145 2   
   149  144  152 1   
   150  146  149 1   
   151  146  150 1   
   152  146  151 1   
   153  152  153 1   
   154  152  161 1   
   155  153  154 1   
   156  153  156 1   
   157  153  162 1   
   158  154  155 2   
   159  154  167 1   
   160  156  157 1   
   161  156  163 1   
   162  156  164 1   
   163  157  158 1   
   164  157  165 1   
   165  157  166 1   
   166  158  159 1   
   167  158  160 1   
   168  167  168 1   
   169  167  172 1   
   170  168  169 1   
   171  168  170 1   
   172  168  171 1   
   173  174  175 1   
   174  174  176 1   
   175  177  178 1   
   176  177  179 1   
@<TRIPOS>SUBSTRUCTURE
     1 MOL         1 TEMP              0 ****  ****    0 ROOT
