@<TRIPOS>MOLECULE
MOL
  189   185     1     0     0
SMALL
resp


@<TRIPOS>ATOM
      1 C1         -1.0560    3.4380    6.2770 c3        1 MOL     -0.441278
      2 C2         -1.2450    3.0990    4.8150 c         1 MOL      0.845535
      3 O1         -0.7980    2.0460    4.4190 o         1 MOL     -0.628559
      4 H1         -1.9400    3.9590    6.6450 hc        1 MOL      0.104548
      5 H2         -0.9120    2.5200    6.8490 hc        1 MOL      0.104548
      6 H3         -0.1830    4.0790    6.3920 hc        1 MOL      0.104548
      7 N1         -1.8930    3.9940    4.0530 n         1 MOL     -0.686122
      8 C3         -2.3460    3.8070    2.6960 c3        1 MOL      0.376196
      9 C4         -2.3050    5.0390    1.7820 c         1 MOL      0.495235
     10 O2         -2.6940    6.1750    2.2050 o         1 MOL     -0.600108
     11 C5         -3.7080    3.1180    2.8670 c3        1 MOL     -0.340737
     12 C6         -4.4100    2.8680    1.5280 c         1 MOL      0.733577
     13 O3         -3.7720    2.2970    0.6280 o         1 MOL     -0.663637
     14 O4         -5.5780    3.2070    1.3490 o         1 MOL     -0.663637
     15 H4         -2.2430    4.8320    4.4830 hn        1 MOL      0.310497
     16 H5         -1.6860    3.0650    2.2530 h1        1 MOL     -0.052062
     17 H6         -4.2860    3.8030    3.4910 hc        1 MOL      0.040590
     18 H7         -3.4530    2.2040    3.3980 hc        1 MOL      0.040590
     19 N2         -1.8930    4.9030    0.5410 n         1 MOL     -0.213710
     20 C7         -1.9660    5.9590   -0.5060 c3        1 MOL     -0.062707
     21 C8         -2.8020    5.4820   -1.7530 c         1 MOL      0.468332
     22 O5         -2.8990    6.2800   -2.6350 o         1 MOL     -0.573558
     23 C9         -0.5630    6.4450   -1.0000 c3        1 MOL      0.097017
     24 C10         0.2130    5.3140   -1.7180 c3        1 MOL      0.334401
     25 C11         0.2580    7.0430    0.2210 c3        1 MOL     -0.300231
     26 C12         1.3090    5.8820   -2.6070 c3        1 MOL     -0.425820
     27 H8         -1.6210    3.9910    0.1880 hn        1 MOL      0.104642
     28 H9         -2.4940    6.8170   -0.0950 h1        1 MOL      0.100032
     29 H10        -0.7740    7.2130   -1.7460 hc        1 MOL     -0.007201
     30 H11        -0.3600    4.6650   -2.3750 hc        1 MOL     -0.006569
     31 H12         0.6860    4.6430   -0.9890 hc        1 MOL     -0.006569
     32 H13         1.1970    7.4900   -0.1040 hc        1 MOL      0.061185
     33 H14        -0.3590    7.7150    0.8130 hc        1 MOL      0.061185
     34 H15         0.4330    6.2260    0.9300 hc        1 MOL      0.061185
     35 H16         1.8160    5.0240   -3.0710 hc        1 MOL      0.082843
     36 H17         0.8490    6.4740   -3.3850 hc        1 MOL      0.082843
     37 H18         2.0510    6.4870   -2.0920 hc        1 MOL      0.082843
     38 N3         -3.3460    4.2740   -1.8320 n         1 MOL     -0.373534
     39 C13        -4.0390    3.6930   -3.0490 c3        1 MOL     -0.006675
     40 C14        -5.3720    3.0040   -2.8190 c         1 MOL      0.455264
     41 O6         -6.1140    2.8380   -3.7630 o         1 MOL     -0.576356
     42 C15        -3.0040    2.8420   -3.8860 c3        1 MOL     -0.087285
     43 C16        -2.1440    1.8550   -3.1470 c         1 MOL      0.745338
     44 O7         -2.2900    1.6780   -1.9210 o         1 MOL     -0.726408
     45 O8         -1.2100    1.2990   -3.7750 o         1 MOL     -0.726408
     46 H19        -3.2230    3.6650   -1.0370 hn        1 MOL      0.289999
     47 H20        -4.2740    4.5120   -3.7340 h1        1 MOL      0.099951
     48 H21        -2.4070    3.5370   -4.4660 hc        1 MOL      0.031921
     49 H22        -3.4740    2.3710   -4.7590 hc        1 MOL      0.031921
     50 N4         -5.8110    2.6950   -1.5730 n         1 MOL     -0.127618
     51 C17        -7.2020    2.3410   -1.2480 c3        1 MOL     -0.206012
     52 C18        -7.5600    0.8500   -1.4650 c         1 MOL      0.462360
     53 O9         -8.7260    0.4500   -1.3830 o         1 MOL     -0.600700
     54 H23        -5.1350    2.7540   -0.8350 hn        1 MOL      0.063653
     55 H24        -7.8820    2.9210   -1.8860 h1        1 MOL      0.119535
     56 H25        -7.4000    2.6580   -0.2130 h1        1 MOL      0.119535
     57 N5         -6.5230    0.0200   -1.7690 n         1 MOL     -0.092756
     58 C19        -6.6740   -1.3820   -2.2040 c3        1 MOL     -0.100472
     59 C20        -6.8600   -2.3220   -0.9810 c         1 MOL      0.461699
     60 O10        -6.9390   -3.5100   -1.0900 o         1 MOL     -0.523293
     61 C21        -5.5230   -1.8280   -3.1070 c3        1 MOL     -0.246038
     62 C22        -4.1610   -1.5930   -2.3790 c         1 MOL      0.827772
     63 O11        -4.0690   -1.1710   -1.2380 o         1 MOL     -0.743184
     64 O12        -3.0910   -1.7650   -3.0670 o         1 MOL     -0.743184
     65 H26        -5.5790    0.3710   -1.7560 hn        1 MOL      0.118714
     66 H27        -7.5810   -1.5090   -2.7900 h1        1 MOL      0.110405
     67 H28        -5.5230   -1.1810   -3.9860 hc        1 MOL      0.085870
     68 H29        -5.6270   -2.8690   -3.4170 hc        1 MOL      0.085870
     69 N6         -6.8470   -1.8250    0.2570 n         1 MOL     -0.279199
     70 C23        -6.9130   -2.5910    1.5270 c3        1 MOL     -0.038447
     71 C24        -5.7990   -3.6650    1.6900 c         1 MOL      0.522673
     72 O13        -6.0840   -4.6800    2.3390 o         1 MOL     -0.587652
     73 H30        -6.6900   -0.8240    0.3280 hn        1 MOL      0.219889
     74 H31        -7.8680   -3.1190    1.5390 h1        1 MOL      0.046823
     75 H32        -6.8940   -1.8380    2.3090 h1        1 MOL      0.046823
     76 N7         -4.6370   -3.4920    1.0550 n         1 MOL     -0.353847
     77 C25        -3.5010   -4.3860    0.9910 c3        1 MOL     -0.153467
     78 C26        -2.2440   -3.4830    1.1570 c         1 MOL      0.735163
     79 O14        -2.2030   -2.4160    0.6160 o         1 MOL     -0.595868
     80 C27        -3.5740   -5.2490   -0.2630 c3        1 MOL      0.104426
     81 C28        -4.6460   -6.3460   -0.1860 c3        1 MOL     -0.352761
     82 C29        -4.6440   -7.2470   -1.4230 c         1 MOL      0.690125
     83 N8         -5.8360   -7.7440   -1.8450 n         1 MOL     -0.784904
     84 O15        -3.6870   -7.5410   -2.0710 o         1 MOL     -0.551283
     85 H33        -4.5570   -2.6460    0.5090 hn        1 MOL      0.318545
     86 H34        -3.4490   -5.1050    1.8050 h1        1 MOL      0.073202
     87 H35        -2.5630   -5.6450   -0.4140 hc        1 MOL      0.026865
     88 H36        -3.6730   -4.6000   -1.1320 hc        1 MOL      0.026865
     89 H37        -5.5930   -5.8120   -0.1720 hc        1 MOL      0.124694
     90 H38        -4.5190   -6.9750    0.6960 hc        1 MOL      0.124694
     91 H39        -6.7220   -7.6030   -1.3800 hn        1 MOL      0.332580
     92 H40        -5.7870   -8.4840   -2.5360 hn        1 MOL      0.332580
     93 N9         -1.2570   -3.9360    1.9610 n         1 MOL     -0.566780
     94 C30        -0.0750   -3.1500    2.2620 c3        1 MOL     -0.049343
     95 C31         1.0850   -3.5120    1.2710 c         1 MOL      0.565695
     96 O16         1.4090   -4.6380    0.8950 o         1 MOL     -0.592166
     97 C32         0.2870   -3.2120    3.7540 c3        1 MOL      0.185948
     98 C33         0.5920   -4.6960    4.1480 c3        1 MOL     -0.175446
     99 C34         1.4290   -2.3240    4.1840 c3        1 MOL     -0.175446
    100 H41        -1.3130   -4.8780    2.3190 hn        1 MOL      0.288948
    101 H42        -0.3280   -2.0960    2.1400 h1        1 MOL      0.167599
    102 H43        -0.6220   -2.9630    4.2970 hc        1 MOL     -0.021843
    103 H44        -0.3280   -5.2820    4.1000 hc        1 MOL      0.033763
    104 H45         1.4460   -5.0000    3.5440 hc        1 MOL      0.033763
    105 H46         0.8710   -4.8180    5.1890 hc        1 MOL      0.033763
    106 H47         2.3320   -2.5730    3.6180 hc        1 MOL      0.033763
    107 H48         1.1390   -1.2680    4.1230 hc        1 MOL      0.033763
    108 H49         1.5830   -2.4560    5.2510 hc        1 MOL      0.033763
    109 N10         1.8020   -2.4730    0.8210 n         1 MOL     -0.115647
    110 C35         2.9330   -2.6350   -0.1290 c3        1 MOL      0.037520
    111 C36         4.3380   -2.3880    0.5790 c         1 MOL      0.271821
    112 O17         4.3950   -1.7680    1.6100 o         1 MOL     -0.324828
    113 C37         2.6890   -1.5810   -1.2520 c3        1 MOL     -0.159257
    114 C38         3.7070   -1.3310   -2.2750 c         1 MOL      0.486073
    115 N11         3.3360   -1.5970   -3.4970 n         1 MOL     -0.661820
    116 O18         4.8070   -0.8470   -2.0390 o         1 MOL     -0.399458
    117 H50         1.3940   -1.5720    1.0260 hn        1 MOL     -0.005373
    118 H51         2.9630   -3.6260   -0.5690 h1        1 MOL      0.063018
    119 H52         2.5030   -0.6000   -0.8130 hc        1 MOL      0.099534
    120 H53         1.6960   -1.7310   -1.6710 hc        1 MOL      0.099534
    121 H54         2.5260   -2.1540   -3.7570 hn        1 MOL      0.340622
    122 H55         4.0280   -1.4800   -4.2230 hn        1 MOL      0.340622
    123 N12         5.4570   -2.8220   -0.0490 n         1 MOL     -0.338579
    124 C39         6.8450   -2.6540    0.5660 c3        1 MOL      0.124779
    125 C40         7.1610   -1.2010    1.0070 c         1 MOL      0.478099
    126 O19         7.8010   -0.9320    2.0460 o         1 MOL     -0.562189
    127 C41         7.8150   -3.2720   -0.4520 c3        1 MOL     -0.313180
    128 C42         7.5960   -2.9090   -1.9220 ca        1 MOL      0.189586
    129 C43         8.2290   -1.7340   -2.4380 ca        1 MOL     -0.288119
    130 C44         6.6370   -3.7020   -2.6350 ca        1 MOL     -0.288119
    131 C45         7.9060   -1.4430   -3.7050 ca        1 MOL     -0.133688
    132 C46         6.2850   -3.2330   -3.9240 ca        1 MOL     -0.133688
    133 C47         7.0070   -2.2170   -4.4890 ca        1 MOL      0.229185
    134 O20         6.7050   -1.8140   -5.7630 oh        1 MOL     -0.565205
    135 H56         5.4200   -3.0540   -1.0330 hn        1 MOL      0.216658
    136 H57         6.8730   -3.1940    1.5090 h1        1 MOL      0.078590
    137 H58         7.6350   -4.3400   -0.3560 hc        1 MOL      0.087334
    138 H59         8.8180   -2.9400   -0.1980 hc        1 MOL      0.087334
    139 H60         8.9890   -1.1300   -1.9450 ha        1 MOL      0.165435
    140 H61         6.1370   -4.5930   -2.2870 ha        1 MOL      0.165435
    141 H62         8.2710   -0.5630   -4.2190 ha        1 MOL      0.109656
    142 H63         5.6080   -3.7650   -4.5630 ha        1 MOL      0.109656
    143 H64         7.2610   -1.0930   -6.0570 ho        1 MOL      0.444527
    144 N13         6.8000   -0.1030    0.2160 n         1 MOL     -0.291062
    145 C48         6.9990    1.2880    0.4980 c3        1 MOL     -0.007090
    146 C49         6.0060    1.8580    1.5270 c         1 MOL      0.282976
    147 O21         6.2140    2.9480    2.0580 o         1 MOL     -0.527779
    148 C50         6.9670    2.1640   -0.7920 c3        1 MOL      0.175241
    149 C51         8.1570    1.9920   -1.7200 c3        1 MOL     -0.519475
    150 C52         7.9460    2.7110   -3.0320 c         1 MOL      0.886221
    151 O22         8.2060    3.9170   -3.1590 o         1 MOL     -0.762920
    152 O23         7.7040    2.1320   -4.0430 o         1 MOL     -0.762920
    153 H65         6.2470   -0.3500   -0.5970 hn        1 MOL      0.220644
    154 H66         8.0110    1.4230    0.8780 h1        1 MOL      0.103147
    155 H67         6.9440    3.2290   -0.5790 hc        1 MOL     -0.002609
    156 H68         6.0650    1.8740   -1.3400 hc        1 MOL     -0.002609
    157 H69         8.2550    0.9250   -1.9450 hc        1 MOL      0.101996
    158 H70         8.9940    2.3200   -1.1070 hc        1 MOL      0.101996
    159 N14         4.9460    1.1480    1.9290 n         1 MOL      0.066751
    160 C53         4.0550    1.4810    2.9870 c3        1 MOL     -0.197403
    161 C54         4.3360    0.6900    4.3230 c         1 MOL      0.442067
    162 O24         3.8380    0.9610    5.4050 o         1 MOL     -0.544215
    163 C55         2.6070    1.0690    2.5620 c3        1 MOL      0.058516
    164 C56         2.1630    1.8810    1.3290 c3        1 MOL      0.008046
    165 C57         0.7610    1.3820    0.8160 c         1 MOL      0.757525
    166 O25         0.5330    0.1410    0.6050 o         1 MOL     -0.740873
    167 O26        -0.1270    2.1980    0.4370 o         1 MOL     -0.740873
    168 H71         4.8820    0.2040    1.5740 hn        1 MOL      0.008057
    169 H72         4.1930    2.5470    3.1770 h1        1 MOL      0.123493
    170 H73         1.8870    1.4210    3.3020 hc        1 MOL      0.043363
    171 H74         2.5650    0.0130    2.3030 hc        1 MOL      0.043363
    172 H75         2.9200    1.7190    0.5660 hc        1 MOL     -0.020201
    173 H76         2.0700    2.9340    1.5950 hc        1 MOL     -0.020201
    174 N15         5.2370   -0.3170    4.2260 n         1 MOL     -0.205394
    175 C58         5.5200   -1.3670    5.2070 c3        1 MOL     -0.099403
    176 H77         6.4670   -1.8480    4.9610 h1        1 MOL      0.057708
    177 H78         5.5830   -0.9270    6.2030 h1        1 MOL      0.057708
    178 H79         4.7220   -2.1090    5.1880 h1        1 MOL      0.057708
    179 H80         5.5090   -0.4660    3.2640 hn        1 MOL      0.146755
    180 Ca1        -2.0880    0.1490    0.1350 Ca        1 MOL      1.761208
    181 O27        -4.2920   -0.4530    2.1470 oh        1 MOL     -0.885561
    182 H81        -5.1080   -0.0630    1.8250 ho        1 MOL      0.425556
    183 H82        -4.3350   -0.3400    3.0970 ho        1 MOL      0.425556
    184 O28        -1.5500   -0.0540    2.6680 oh        1 MOL     -0.885561
    185 H83        -1.0800    0.6100    3.1840 ho        1 MOL      0.425556
    186 H84        -2.1040   -0.5090    3.3110 ho        1 MOL      0.425556
    187 O29        -0.9260   -0.8870   -1.9920 oh        1 MOL     -0.885561
    188 H85        -1.5980   -1.4430   -2.3860 ho        1 MOL      0.425556
    189 H86        -0.7860   -0.1850   -2.6290 ho        1 MOL      0.425556
@<TRIPOS>BOND
     1    1    2 1   
     2    1    4 1   
     3    1    5 1   
     4    1    6 1   
     5    2    3 2   
     6    2    7 1   
     7    7    8 1   
     8    7   15 1   
     9    8    9 1   
    10    8   11 1   
    11    8   16 1   
    12    9   10 2   
    13    9   19 1   
    14   11   12 1   
    15   11   17 1   
    16   11   18 1   
    17   12   13 1   
    18   12   14 1   
    19   19   20 1   
    20   19   27 1   
    21   20   21 1   
    22   20   23 1   
    23   20   28 1   
    24   21   22 2   
    25   21   38 1   
    26   23   24 1   
    27   23   25 1   
    28   23   29 1   
    29   24   26 1   
    30   24   30 1   
    31   24   31 1   
    32   25   32 1   
    33   25   33 1   
    34   25   34 1   
    35   26   35 1   
    36   26   36 1   
    37   26   37 1   
    38   38   39 1   
    39   38   46 1   
    40   39   40 1   
    41   39   42 1   
    42   39   47 1   
    43   40   41 2   
    44   40   50 1   
    45   42   43 1   
    46   42   48 1   
    47   42   49 1   
    48   43   44 1   
    49   43   45 1   
    50   50   51 1   
    51   50   54 1   
    52   51   52 1   
    53   51   55 1   
    54   51   56 1   
    55   52   53 2   
    56   52   57 1   
    57   57   58 1   
    58   57   65 1   
    59   58   59 1   
    60   58   61 1   
    61   58   66 1   
    62   59   60 2   
    63   59   69 1   
    64   61   62 1   
    65   61   67 1   
    66   61   68 1   
    67   62   63 1   
    68   62   64 1   
    69   69   70 1   
    70   69   73 1   
    71   70   71 1   
    72   70   74 1   
    73   70   75 1   
    74   71   72 2   
    75   71   76 1   
    76   76   77 1   
    77   76   85 1   
    78   77   78 1   
    79   77   80 1   
    80   77   86 1   
    81   78   79 2   
    82   78   93 1   
    83   80   81 1   
    84   80   87 1   
    85   80   88 1   
    86   81   82 1   
    87   81   89 1   
    88   81   90 1   
    89   82   83 1   
    90   82   84 2   
    91   83   91 1   
    92   83   92 1   
    93   93   94 1   
    94   93  100 1   
    95   94   95 1   
    96   94   97 1   
    97   94  101 1   
    98   95   96 2   
    99   95  109 1   
   100   97   98 1   
   101   97   99 1   
   102   97  102 1   
   103   98  103 1   
   104   98  104 1   
   105   98  105 1   
   106   99  106 1   
   107   99  107 1   
   108   99  108 1   
   109  109  110 1   
   110  109  117 1   
   111  110  111 1   
   112  110  113 1   
   113  110  118 1   
   114  111  112 2   
   115  111  123 1   
   116  113  114 1   
   117  113  119 1   
   118  113  120 1   
   119  114  115 1   
   120  114  116 2   
   121  115  121 1   
   122  115  122 1   
   123  123  124 1   
   124  123  135 1   
   125  124  125 1   
   126  124  127 1   
   127  124  136 1   
   128  125  126 2   
   129  125  144 1   
   130  127  128 1   
   131  127  137 1   
   132  127  138 1   
   133  128  129 ar  
   134  128  130 ar  
   135  129  131 ar  
   136  129  139 1   
   137  130  132 ar  
   138  130  140 1   
   139  131  133 ar  
   140  131  141 1   
   141  132  133 ar  
   142  132  142 1   
   143  133  134 1   
   144  134  143 1   
   145  144  145 1   
   146  144  153 1   
   147  145  146 1   
   148  145  148 1   
   149  145  154 1   
   150  146  147 2   
   151  146  159 1   
   152  148  149 1   
   153  148  155 1   
   154  148  156 1   
   155  149  150 1   
   156  149  157 1   
   157  149  158 1   
   158  150  151 1   
   159  150  152 1   
   160  159  160 1   
   161  159  168 1   
   162  160  161 1   
   163  160  163 1   
   164  160  169 1   
   165  161  162 2   
   166  161  174 1   
   167  163  164 1   
   168  163  170 1   
   169  163  171 1   
   170  164  165 1   
   171  164  172 1   
   172  164  173 1   
   173  165  166 1   
   174  165  167 1   
   175  174  175 1   
   176  174  179 1   
   177  175  176 1   
   178  175  177 1   
   179  175  178 1   
   180  181  182 1   
   181  181  183 1   
   182  184  185 1   
   183  184  186 1   
   184  187  188 1   
   185  187  189 1   
@<TRIPOS>SUBSTRUCTURE
     1 MOL         1 TEMP              0 ****  ****    0 ROOT
