@<TRIPOS>MOLECULE
MOL
  189   185     1     0     0
SMALL
resp


@<TRIPOS>ATOM
      1 C1          0.6730   -5.1790    5.3320 c3        1 MOL     -0.362069
      2 C2          1.0370   -4.4140    4.0560 c         1 MOL      0.745027
      3 O1          0.9910   -3.1610    4.0460 o         1 MOL     -0.616742
      4 H1          0.3380   -4.4760    6.0940 hc        1 MOL      0.092895
      5 H2         -0.1260   -5.8890    5.1160 hc        1 MOL      0.092895
      6 H3          1.5490   -5.7170    5.6950 hc        1 MOL      0.092895
      7 N1          1.4970   -5.0840    3.0110 n         1 MOL     -0.595141
      8 C3          2.1820   -4.3590    1.8820 c3        1 MOL      0.221397
      9 C4          1.9630   -5.0880    0.5520 c         1 MOL      0.473328
     10 O2          2.1950   -6.2860    0.5310 o         1 MOL     -0.560079
     11 C5          3.6580   -4.0560    2.2860 c3        1 MOL     -0.255541
     12 C6          4.3470   -3.1130    1.3580 c         1 MOL      0.821420
     13 O3          5.4710   -2.7940    1.7180 o         1 MOL     -0.705059
     14 O4          3.7650   -2.5370    0.4250 o         1 MOL     -0.705059
     15 H4          1.3340   -6.0760    2.9940 hn        1 MOL      0.315378
     16 H5          1.6560   -3.4110    1.7710 h1        1 MOL     -0.089853
     17 H6          4.2530   -4.9700    2.3480 hc        1 MOL      0.067269
     18 H7          3.7280   -3.6220    3.2860 hc        1 MOL      0.067269
     19 N2          1.4570   -4.3800   -0.4580 n         1 MOL     -0.319159
     20 C7          1.1080   -4.8530   -1.8510 c3        1 MOL     -0.008823
     21 C8          2.2200   -4.6080   -2.7770 c         1 MOL      0.557355
     22 O5          2.5960   -5.4640   -3.5740 o         1 MOL     -0.598675
     23 C9         -0.2070   -4.2670   -2.3740 c3        1 MOL      0.271016
     24 C10        -1.3080   -5.0430   -1.5760 c3        1 MOL     -0.028788
     25 C11        -0.4300   -4.3590   -3.9100 c3        1 MOL     -0.324764
     26 C12        -2.7850   -4.4270   -1.4730 c3        1 MOL     -0.193178
     27 H8          1.3080   -3.3920   -0.3190 hn        1 MOL      0.377180
     28 H9          0.9200   -5.9260   -1.7670 h1        1 MOL      0.016233
     29 H10        -0.1760   -3.2320   -2.0320 hc        1 MOL     -0.047951
     30 H11        -0.8990   -5.1150   -0.5710 hc        1 MOL     -0.004140
     31 H12        -1.4350   -6.0710   -1.9450 hc        1 MOL     -0.004140
     32 H13         0.3100   -3.6870   -4.3480 hc        1 MOL      0.074068
     33 H14        -0.2810   -5.3680   -4.2690 hc        1 MOL      0.074068
     34 H15        -1.4290   -3.9650   -4.1100 hc        1 MOL      0.074068
     35 H16        -2.6910   -3.5510   -0.8330 hc        1 MOL      0.058489
     36 H17        -3.1250   -4.2570   -2.4900 hc        1 MOL      0.058489
     37 H18        -3.4210   -5.1070   -0.9230 hc        1 MOL      0.058489
     38 N3          2.9300   -3.4900   -2.6750 n         1 MOL     -0.352202
     39 C13         3.8700   -2.9590   -3.6880 c3        1 MOL      0.078446
     40 C14         5.3010   -2.6280   -3.2010 c         1 MOL      0.435128
     41 O6          6.1490   -2.4840   -4.0460 o         1 MOL     -0.545487
     42 C15         3.1960   -1.7380   -4.3990 c3        1 MOL     -0.114410
     43 C16         2.7810   -0.5870   -3.5240 c         1 MOL      0.678626
     44 O7          3.2250   -0.4590   -2.3990 o         1 MOL     -0.703904
     45 O8          1.8560    0.2170   -3.8540 o         1 MOL     -0.703904
     46 H19         2.8000   -2.8560   -1.9100 hn        1 MOL      0.158515
     47 H20         4.0120   -3.6750   -4.4970 h1        1 MOL      0.061935
     48 H21         2.2880   -2.0640   -4.9070 hc        1 MOL      0.026308
     49 H22         3.9290   -1.4100   -5.1390 hc        1 MOL      0.026308
     50 N4          5.5160   -2.4820   -1.8840 n         1 MOL     -0.053506
     51 C17         6.7930   -2.4200   -1.3570 c3        1 MOL     -0.228062
     52 C18         7.4110   -1.1180   -1.1520 c         1 MOL      0.681248
     53 O9          8.6220   -1.0370   -0.8040 o         1 MOL     -0.649032
     54 H23         4.8160   -2.7410   -1.1960 hn        1 MOL      0.072271
     55 H24         7.4860   -3.0400   -1.9400 h1        1 MOL      0.081896
     56 H25         6.6970   -2.7640   -0.3290 h1        1 MOL      0.081896
     57 N5          6.7080   -0.0670   -1.5510 n         1 MOL     -0.407109
     58 C19         7.2100    1.3600   -1.6820 c3        1 MOL      0.038398
     59 C20         7.3180    2.3100   -0.3390 c         1 MOL      0.427606
     60 O10         7.6100    3.4860   -0.4950 o         1 MOL     -0.539804
     61 C21         6.2320    2.0510   -2.6970 c3        1 MOL     -0.393112
     62 C22         4.8990    2.3190   -1.9860 c         1 MOL      0.808327
     63 O11         4.5500    1.8320   -0.8510 o         1 MOL     -0.707225
     64 O12         4.1550    3.2100   -2.4890 o         1 MOL     -0.707225
     65 H26         5.8490   -0.2780   -2.0260 hn        1 MOL      0.214646
     66 H27         8.1970    1.3830   -2.1360 h1        1 MOL      0.085440
     67 H28         6.1750    1.4140   -3.5790 hc        1 MOL      0.131413
     68 H29         6.6720    3.0080   -2.9980 hc        1 MOL      0.131413
     69 N6          6.9390    1.8810    0.8290 n         1 MOL     -0.317807
     70 C23         7.0020    2.6820    2.0600 c3        1 MOL     -0.159155
     71 C24         5.7610    3.5480    2.3360 c         1 MOL      0.396538
     72 O13         5.6780    4.1910    3.3870 o         1 MOL     -0.585680
     73 H30         6.3650    1.0610    0.9160 hn        1 MOL      0.300259
     74 H31         7.9350    3.2430    2.1140 h1        1 MOL      0.114159
     75 H32         7.0410    2.0500    2.9370 h1        1 MOL      0.114159
     76 N7          4.7470    3.5220    1.4580 n         1 MOL     -0.061812
     77 C25         3.4480    4.2150    1.6510 c3        1 MOL     -0.011927
     78 C26         2.3990    3.1360    2.2070 c         1 MOL      0.463186
     79 O14         2.6700    1.9040    2.0830 o         1 MOL     -0.608067
     80 C27         2.9940    4.9260    0.4090 c3        1 MOL      0.046063
     81 C28         3.9050    6.1090    0.0740 c3        1 MOL     -0.122954
     82 C29         3.4130    6.7330   -1.1730 c         1 MOL      0.614791
     83 N8          3.6360    6.1120   -2.3440 n         1 MOL     -0.773592
     84 O15         2.7730    7.7610   -1.1510 o         1 MOL     -0.615242
     85 H33         4.9150    2.8690    0.6960 hn        1 MOL      0.206535
     86 H34         3.5360    4.9220    2.4680 h1        1 MOL      0.046781
     87 H35         1.9810    5.3290    0.4950 hc        1 MOL      0.024527
     88 H36         3.0720    4.1710   -0.3810 hc        1 MOL      0.024527
     89 H37         4.9330    5.8100   -0.1260 hc        1 MOL      0.026977
     90 H38         3.9370    6.8630    0.8600 hc        1 MOL      0.026977
     91 H39         3.9270    5.1500   -2.2470 hn        1 MOL      0.363166
     92 H40         3.3500    6.6030   -3.1790 hn        1 MOL      0.363166
     93 N9          1.1380    3.5580    2.4080 n         1 MOL     -0.379430
     94 C30        -0.0010    2.6510    2.5550 c3        1 MOL      0.049742
     95 C31        -1.1520    3.1230    1.6530 c         1 MOL      0.383230
     96 O16        -1.5120    4.2990    1.6640 o         1 MOL     -0.582402
     97 C32        -0.4820    2.7050    4.0140 c3        1 MOL      0.299887
     98 C33        -1.7190    1.7580    4.2200 c3        1 MOL     -0.291946
     99 C34         0.7450    2.3530    4.9390 c3        1 MOL     -0.291946
    100 H41         1.0200    4.5640    2.3450 hn        1 MOL      0.267751
    101 H42         0.1630    1.5700    2.4990 h1        1 MOL      0.117688
    102 H43        -0.6920    3.7440    4.2870 hc        1 MOL     -0.054789
    103 H44        -2.5500    2.2860    3.7420 hc        1 MOL      0.057644
    104 H45        -1.7600    0.8230    3.6660 hc        1 MOL      0.057644
    105 H46        -1.8930    1.5760    5.2710 hc        1 MOL      0.057644
    106 H47         1.0360    1.3490    4.6090 hc        1 MOL      0.057644
    107 H48         1.5040    3.1150    4.7700 hc        1 MOL      0.057644
    108 H49         0.4580    2.2710    5.9880 hc        1 MOL      0.057644
    109 N10        -1.7850    2.2650    0.9360 n         1 MOL     -0.035558
    110 C35        -2.9380    2.4650    0.1300 c3        1 MOL      0.204301
    111 C36        -4.1520    1.9860    0.8780 c         1 MOL      0.072111
    112 O17        -3.9840    1.2470    1.8270 o         1 MOL     -0.129835
    113 C37        -2.6610    1.8120   -1.2600 c3        1 MOL     -0.584916
    114 C38        -3.9030    1.5620   -2.0550 c         1 MOL      0.786098
    115 N11        -4.5310    2.5900   -2.5170 n         1 MOL     -0.817526
    116 O18        -4.4020    0.4550   -2.2260 o         1 MOL     -0.586499
    117 H50        -1.4730    1.3030    1.0020 hn        1 MOL     -0.037773
    118 H51        -3.1320    3.5310   -0.0030 h1        1 MOL      0.040814
    119 H52        -2.2160    0.8400   -1.0420 hc        1 MOL      0.209916
    120 H53        -2.0260    2.4350   -1.8950 hc        1 MOL      0.209916
    121 H54        -4.2200    3.5070   -2.2310 hn        1 MOL      0.384411
    122 H55        -5.3760    2.3670   -3.0230 hn        1 MOL      0.384411
    123 N12        -5.3320    2.3950    0.4960 n         1 MOL     -0.046802
    124 C39        -6.5890    2.0100    1.1220 c3        1 MOL      0.045532
    125 C40        -6.9780    0.5030    0.9850 c         1 MOL      0.297867
    126 O19        -7.7130    0.0000    1.8590 o         1 MOL     -0.530153
    127 C41        -7.7750    2.8650    0.6670 c3        1 MOL     -0.367185
    128 C42        -7.7420    3.0180   -0.8260 ca        1 MOL      0.129648
    129 C43        -7.1120    4.1090   -1.4340 ca        1 MOL     -0.183332
    130 C44        -8.4360    2.0870   -1.6020 ca        1 MOL     -0.183332
    131 C45        -7.2040    4.3490   -2.8360 ca        1 MOL     -0.283437
    132 C46        -8.4480    2.2680   -3.0120 ca        1 MOL     -0.283437
    133 C47        -7.9450    3.4350   -3.5930 ca        1 MOL      0.397917
    134 O20        -8.0930    3.6230   -4.9270 oh        1 MOL     -0.571001
    135 H56        -5.3630    3.0270   -0.2960 hn        1 MOL      0.042563
    136 H57        -6.4260    2.1880    2.1810 h1        1 MOL      0.079368
    137 H58        -7.7490    3.7950    1.2360 hc        1 MOL      0.141272
    138 H59        -8.7000    2.3590    0.9190 hc        1 MOL      0.141272
    139 H60        -6.4790    4.7600   -0.8400 ha        1 MOL      0.143649
    140 H61        -8.8690    1.2320   -1.1090 ha        1 MOL      0.143649
    141 H62        -6.7140    5.2190   -3.2490 ha        1 MOL      0.142751
    142 H63        -8.9210    1.4940   -3.6010 ha        1 MOL      0.142751
    143 H64        -8.8910    3.2020   -5.2540 ho        1 MOL      0.408250
    144 N13        -6.3610   -0.2390    0.0390 n         1 MOL      0.166121
    145 C48        -6.4240   -1.7100   -0.0780 c3        1 MOL     -0.379360
    146 C49        -5.2690   -2.4350    0.7210 c         1 MOL      0.406507
    147 O21        -5.4590   -3.5290    1.1680 o         1 MOL     -0.492539
    148 C50        -6.3640   -2.2620   -1.5180 c3        1 MOL      0.124851
    149 C51        -7.5510   -1.8350   -2.4600 c3        1 MOL     -0.141564
    150 C52        -8.8640   -2.1340   -1.7780 c         1 MOL      0.680469
    151 O22        -9.8480   -1.3600   -1.8620 o         1 MOL     -0.711967
    152 O23        -8.9790   -3.1730   -1.1040 o         1 MOL     -0.711967
    153 H65        -5.9280    0.2600   -0.7350 hn        1 MOL      0.182991
    154 H66        -7.3790   -2.0730    0.3130 h1        1 MOL      0.221365
    155 H67        -6.3390   -3.3530   -1.5250 hc        1 MOL     -0.002045
    156 H68        -5.4350   -1.9900   -2.0070 hc        1 MOL     -0.002045
    157 H69        -7.5110   -2.4390   -3.3650 hc        1 MOL     -0.005535
    158 H70        -7.5090   -0.7820   -2.7360 hc        1 MOL     -0.005535
    159 N14        -4.2000   -1.7580    1.1610 n         1 MOL     -0.068282
    160 C53        -3.3260   -2.1880    2.2110 c3        1 MOL     -0.100727
    161 C54        -3.9210   -1.9010    3.5700 c         1 MOL      0.501861
    162 O24        -3.9020   -2.7180    4.4680 o         1 MOL     -0.561286
    163 C55        -1.9950   -1.4150    1.9800 c3        1 MOL     -0.121720
    164 C56        -1.3280   -1.8310    0.6630 c3        1 MOL      0.443193
    165 C57        -0.0660   -0.9920    0.2480 c         1 MOL      0.646047
    166 O25         0.7350   -1.4660   -0.5500 o         1 MOL     -0.675703
    167 O26         0.2560    0.1370    0.7200 o         1 MOL     -0.675703
    168 H71        -4.1100   -0.7700    0.9650 hn        1 MOL      0.001595
    169 H72        -3.1010   -3.2520    2.1420 h1        1 MOL      0.077563
    170 H73        -1.3310   -1.5930    2.8180 hc        1 MOL      0.045026
    171 H74        -2.1800   -0.3460    2.0310 hc        1 MOL      0.045026
    172 H75        -2.0160   -1.7050   -0.1730 hc        1 MOL     -0.140571
    173 H76        -1.0270   -2.8680    0.6520 hc        1 MOL     -0.140571
    174 N15        -4.4290   -0.6500    3.7870 n         1 MOL     -0.050633
    175 C58        -4.9210   -0.1720    5.0460 c3        1 MOL     -0.097414
    176 H77        -4.5060    0.8160    5.2470 h1        1 MOL      0.041822
    177 H78        -6.0090   -0.1080    5.0110 h1        1 MOL      0.041822
    178 H79        -4.6220   -0.8590    5.8390 h1        1 MOL      0.041822
    179 H80        -4.2450    0.0310    3.0530 hn        1 MOL     -0.052490
    180 Ca1         2.8850    0.0520    0.1110 Ca        1 MOL      1.703616
    181 O27         2.0200   -1.0380    2.6740 oh        1 MOL     -0.931552
    182 H81         2.4270   -0.6170    3.4290 ho        1 MOL      0.434800
    183 H82         1.6110   -1.8220    3.0300 ho        1 MOL      0.434800
    184 O28         5.2800   -0.1300    1.7880 oh        1 MOL     -0.931552
    185 H83         4.8610    0.0280    2.6390 ho        1 MOL      0.434800
    186 H84         5.5140   -1.0560    1.8050 ho        1 MOL      0.434800
    187 O29         1.7500    2.0600   -1.9620 oh        1 MOL     -0.931552
    188 H85         1.7470    1.4780   -2.7210 ho        1 MOL      0.434800
    189 H86         2.5510    2.5770   -2.0450 ho        1 MOL      0.434800
@<TRIPOS>BOND
     1    1    2 1   
     2    1    4 1   
     3    1    5 1   
     4    1    6 1   
     5    2    3 2   
     6    2    7 1   
     7    7    8 1   
     8    7   15 1   
     9    8    9 1   
    10    8   11 1   
    11    8   16 1   
    12    9   10 2   
    13    9   19 1   
    14   11   12 1   
    15   11   17 1   
    16   11   18 1   
    17   12   13 1   
    18   12   14 1   
    19   19   20 1   
    20   19   27 1   
    21   20   21 1   
    22   20   23 1   
    23   20   28 1   
    24   21   22 2   
    25   21   38 1   
    26   23   24 1   
    27   23   25 1   
    28   23   29 1   
    29   24   26 1   
    30   24   30 1   
    31   24   31 1   
    32   25   32 1   
    33   25   33 1   
    34   25   34 1   
    35   26   35 1   
    36   26   36 1   
    37   26   37 1   
    38   38   39 1   
    39   38   46 1   
    40   39   40 1   
    41   39   42 1   
    42   39   47 1   
    43   40   41 2   
    44   40   50 1   
    45   42   43 1   
    46   42   48 1   
    47   42   49 1   
    48   43   44 1   
    49   43   45 1   
    50   50   51 1   
    51   50   54 1   
    52   51   52 1   
    53   51   55 1   
    54   51   56 1   
    55   52   53 2   
    56   52   57 1   
    57   57   58 1   
    58   57   65 1   
    59   58   59 1   
    60   58   61 1   
    61   58   66 1   
    62   59   60 2   
    63   59   69 1   
    64   61   62 1   
    65   61   67 1   
    66   61   68 1   
    67   62   63 1   
    68   62   64 1   
    69   69   70 1   
    70   69   73 1   
    71   70   71 1   
    72   70   74 1   
    73   70   75 1   
    74   71   72 2   
    75   71   76 1   
    76   76   77 1   
    77   76   85 1   
    78   77   78 1   
    79   77   80 1   
    80   77   86 1   
    81   78   79 2   
    82   78   93 1   
    83   80   81 1   
    84   80   87 1   
    85   80   88 1   
    86   81   82 1   
    87   81   89 1   
    88   81   90 1   
    89   82   83 1   
    90   82   84 2   
    91   83   91 1   
    92   83   92 1   
    93   93   94 1   
    94   93  100 1   
    95   94   95 1   
    96   94   97 1   
    97   94  101 1   
    98   95   96 2   
    99   95  109 1   
   100   97   98 1   
   101   97   99 1   
   102   97  102 1   
   103   98  103 1   
   104   98  104 1   
   105   98  105 1   
   106   99  106 1   
   107   99  107 1   
   108   99  108 1   
   109  109  110 1   
   110  109  117 1   
   111  110  111 1   
   112  110  113 1   
   113  110  118 1   
   114  111  112 2   
   115  111  123 1   
   116  113  114 1   
   117  113  119 1   
   118  113  120 1   
   119  114  115 1   
   120  114  116 2   
   121  115  121 1   
   122  115  122 1   
   123  123  124 1   
   124  123  135 1   
   125  124  125 1   
   126  124  127 1   
   127  124  136 1   
   128  125  126 2   
   129  125  144 1   
   130  127  128 1   
   131  127  137 1   
   132  127  138 1   
   133  128  129 ar  
   134  128  130 ar  
   135  129  131 ar  
   136  129  139 1   
   137  130  132 ar  
   138  130  140 1   
   139  131  133 ar  
   140  131  141 1   
   141  132  133 ar  
   142  132  142 1   
   143  133  134 1   
   144  134  143 1   
   145  144  145 1   
   146  144  153 1   
   147  145  146 1   
   148  145  148 1   
   149  145  154 1   
   150  146  147 2   
   151  146  159 1   
   152  148  149 1   
   153  148  155 1   
   154  148  156 1   
   155  149  150 1   
   156  149  157 1   
   157  149  158 1   
   158  150  151 1   
   159  150  152 1   
   160  159  160 1   
   161  159  168 1   
   162  160  161 1   
   163  160  163 1   
   164  160  169 1   
   165  161  162 2   
   166  161  174 1   
   167  163  164 1   
   168  163  170 1   
   169  163  171 1   
   170  164  165 1   
   171  164  172 1   
   172  164  173 1   
   173  165  166 1   
   174  165  167 1   
   175  174  175 1   
   176  174  179 1   
   177  175  176 1   
   178  175  177 1   
   179  175  178 1   
   180  181  182 1   
   181  181  183 1   
   182  184  185 1   
   183  184  186 1   
   184  187  188 1   
   185  187  189 1   
@<TRIPOS>SUBSTRUCTURE
     1 MOL         1 TEMP              0 ****  ****    0 ROOT
