@<TRIPOS>MOLECULE
MOL
  175   173     1     0     0
SMALL
resp


@<TRIPOS>ATOM
      1 C1          0.3440    3.8920    5.4330 c3        1 MOL     -0.397015
      2 C2         -0.2340    3.8920    4.0570 c         1 MOL      0.727300
      3 O1          0.5020    4.0770    3.0660 o         1 MOL     -0.554498
      4 H1         -0.0540    4.7370    5.9940 hc        1 MOL      0.100304
      5 H2          0.0780    2.9640    5.9390 hc        1 MOL      0.100304
      6 H3          1.4290    3.9760    5.3730 hc        1 MOL      0.100304
      7 N1         -1.5200    3.5250    3.9040 n         1 MOL     -0.645793
      8 C3         -2.2140    3.3970    2.5800 c3        1 MOL      0.140978
      9 C4         -2.2960    4.6680    1.7080 c         1 MOL      0.557233
     10 O2         -2.4270    5.7730    2.2030 o         1 MOL     -0.572546
     11 C5         -3.7040    2.7770    2.7520 c3        1 MOL     -0.292689
     12 C6         -4.3080    2.1910    1.5200 c         1 MOL      0.712133
     13 O3         -3.5540    1.9900    0.5200 o         1 MOL     -0.649345
     14 O4         -5.5410    1.9820    1.5670 o         1 MOL     -0.649345
     15 H4         -2.1420    3.3820    4.6760 hn        1 MOL      0.310927
     16 H5         -1.5880    2.6470    2.0980 h1        1 MOL      0.089318
     17 H6         -4.3340    3.6050    3.0800 hc        1 MOL      0.070294
     18 H7         -3.8370    1.9990    3.5060 hc        1 MOL      0.070294
     19 N2         -2.2280    4.4530    0.3910 n         1 MOL     -0.539597
     20 C7         -2.4860    5.3950   -0.6750 c3        1 MOL      0.447105
     21 C8         -3.4970    4.8880   -1.7780 c         1 MOL      0.369746
     22 O5         -3.7350    5.6140   -2.7230 o         1 MOL     -0.558985
     23 C9         -1.1060    5.8840   -1.2810 c3        1 MOL     -0.404991
     24 H8         -2.0370    3.4870    0.1800 hn        1 MOL      0.353924
     25 H9         -2.9580    6.2750   -0.2260 h1        1 MOL     -0.011748
     26 H10        -0.9350    5.4590   -2.2660 hc        1 MOL      0.096919
     27 H11        -1.2170    6.9670   -1.3700 hc        1 MOL      0.096919
     28 H12        -0.2840    5.6420   -0.6060 hc        1 MOL      0.096919
     29 N3         -4.1960    3.7440   -1.7100 n         1 MOL     -0.378599
     30 C10        -5.0430    3.2630   -2.8180 c3        1 MOL      0.241860
     31 C11        -6.3440    2.5410   -2.3720 c         1 MOL      0.293813
     32 O6         -7.2600    2.5290   -3.2120 o         1 MOL     -0.559833
     33 C12        -4.1110    2.3550   -3.6770 c3        1 MOL     -0.268334
     34 C13        -3.3090    1.3530   -2.8420 c         1 MOL      0.707061
     35 O7         -2.0650    1.4230   -2.8100 o         1 MOL     -0.683558
     36 O8         -3.9320    0.5610   -2.0660 o         1 MOL     -0.683558
     37 H13        -4.0100    3.1300   -0.9230 hn        1 MOL      0.186565
     38 H14        -5.3050    4.1050   -3.4600 h1        1 MOL      0.063900
     39 H15        -3.5030    3.0720   -4.2340 hc        1 MOL      0.066961
     40 H16        -4.6430    1.7010   -4.3660 hc        1 MOL      0.066961
     41 N4         -6.4840    1.9370   -1.2050 n         1 MOL     -0.033133
     42 C14        -7.6230    1.0880   -0.8160 c3        1 MOL     -0.200039
     43 C15        -7.5290   -0.4000   -1.1460 c         1 MOL      0.562374
     44 O9         -8.6200   -0.9950   -1.0640 o         1 MOL     -0.621753
     45 H17        -5.7710    1.9980   -0.4870 hn        1 MOL      0.048274
     46 H18        -8.5630    1.3860   -1.2680 h1        1 MOL      0.103649
     47 H19        -7.8230    1.0980    0.2630 h1        1 MOL      0.103649
     48 N5         -6.3280   -0.9270   -1.4420 n         1 MOL     -0.183543
     49 C16        -6.1060   -2.2790   -1.9770 c3        1 MOL     -0.190768
     50 C17        -5.8620   -3.3410   -0.8710 c         1 MOL      0.483067
     51 O10        -5.4460   -4.4370   -1.1550 o         1 MOL     -0.497693
     52 C18        -4.9700   -2.2210   -3.0650 c3        1 MOL      0.043380
     53 C19        -3.5350   -2.2460   -2.4830 c         1 MOL      0.324975
     54 N6         -2.4900   -2.4300   -3.2440 n         1 MOL     -0.577370
     55 O11        -3.3830   -2.0570   -1.3110 o         1 MOL     -0.263885
     56 H20        -5.6000   -0.2190   -1.4850 hn        1 MOL      0.171368
     57 H21        -7.0040   -2.4990   -2.5330 h1        1 MOL      0.125163
     58 H22        -5.1680   -1.3070   -3.6260 hc        1 MOL      0.024511
     59 H23        -5.0700   -2.9700   -3.8520 hc        1 MOL      0.024511
     60 H24        -2.7170   -2.2020   -4.1980 hn        1 MOL      0.305023
     61 H25        -1.5920   -2.1470   -2.8820 hn        1 MOL      0.305023
     62 N7         -6.2390   -3.0750    0.3620 n         1 MOL     -0.271587
     63 C20        -6.2710   -4.0300    1.4740 c3        1 MOL     -0.181912
     64 C21        -4.8510   -4.4970    1.8900 c         1 MOL      0.531048
     65 O12        -4.8100   -5.4250    2.7000 o         1 MOL     -0.561430
     66 H26        -6.3510   -2.0640    0.4630 hn        1 MOL      0.211448
     67 H27        -6.8650   -4.9430    1.3250 h1        1 MOL      0.113723
     68 H28        -6.6000   -3.5370    2.3870 h1        1 MOL      0.113723
     69 N8         -3.7820   -3.9170    1.2310 n         1 MOL     -0.245662
     70 C22        -2.4150   -4.4680    1.2570 c3        1 MOL     -0.197326
     71 C23        -1.3320   -3.3090    1.3420 c         1 MOL      0.426252
     72 O13        -1.3630   -2.3720    0.5370 o         1 MOL     -0.468520
     73 C24        -2.1130   -5.4160    0.1120 c3        1 MOL      0.674229
     74 C25        -2.9690   -6.6710    0.2450 c3        1 MOL     -0.555147
     75 O14        -2.2930   -4.8280   -1.0940 oh        1 MOL     -0.620266
     76 H29        -3.8650   -3.1610    0.5650 hn        1 MOL      0.136543
     77 H30        -2.2460   -5.2210    2.0300 h1        1 MOL      0.055173
     78 H31        -1.0630   -5.7060    0.2150 h1        1 MOL     -0.106434
     79 H32        -2.0720   -3.9010   -1.0240 ho        1 MOL      0.341457
     80 H33        -2.6230   -7.4080   -0.4700 hc        1 MOL      0.136423
     81 H34        -2.8920   -7.0910    1.2470 hc        1 MOL      0.136423
     82 H35        -3.9940   -6.4900   -0.0880 hc        1 MOL      0.136423
     83 N9         -0.3180   -3.4060    2.1560 n         1 MOL     -0.268090
     84 C26         0.8460   -2.4660    2.2120 c3        1 MOL     -0.089883
     85 C27         1.7420   -2.6760    0.9830 c         1 MOL      0.544636
     86 O15         2.3730   -3.7230    0.9190 o         1 MOL     -0.598961
     87 C28         1.6710   -2.5980    3.5650 c3        1 MOL      0.106229
     88 C29         0.7040   -2.0430    4.6600 c3        1 MOL      0.024598
     89 C30         3.0290   -1.8680    3.6630 c3        1 MOL     -0.107019
     90 C31         1.1930   -2.2710    6.0650 c3        1 MOL     -0.168841
     91 H36        -0.2650   -4.2490    2.7050 hn        1 MOL      0.236123
     92 H37         0.4460   -1.4550    2.1280 h1        1 MOL     -0.047980
     93 H38         1.8570   -3.6630    3.7090 hc        1 MOL      0.024147
     94 H39        -0.2680   -2.5290    4.5910 hc        1 MOL      0.012815
     95 H40         0.5220   -0.9700    4.5650 hc        1 MOL      0.012815
     96 H41         3.4160   -2.0290    4.6660 hc        1 MOL      0.020900
     97 H42         3.8240   -2.2340    3.0170 hc        1 MOL      0.020900
     98 H43         2.9550   -0.7830    3.5240 hc        1 MOL      0.020900
     99 H44         0.4540   -2.1410    6.8520 hc        1 MOL      0.032772
    100 H45         1.5560   -3.2970    6.0450 hc        1 MOL      0.032772
    101 H46         1.9320   -1.5650    6.4530 hc        1 MOL      0.032772
    102 N10         1.8670   -1.7130    0.0830 n         1 MOL     -0.295777
    103 C32         2.7110   -1.8660   -1.1040 c3        1 MOL      0.222625
    104 C33         4.1830   -1.5110   -0.7660 c         1 MOL      0.457972
    105 O16         4.3830   -0.8270    0.2870 o         1 MOL     -0.409927
    106 C34         2.1860   -1.0400   -2.3420 c3        1 MOL     -0.250097
    107 C35         0.7710   -1.3090   -2.7620 c         1 MOL      0.625184
    108 O17        -0.1240   -1.0670   -1.8900 o         1 MOL     -0.639139
    109 O18         0.5260   -1.9400   -3.8310 o         1 MOL     -0.639139
    110 H47         1.1380   -1.0180    0.1130 hn        1 MOL      0.232875
    111 H48         2.7660   -2.9260   -1.3290 h1        1 MOL      0.041704
    112 H49         2.8970   -1.1900   -3.1540 hc        1 MOL      0.054497
    113 H50         2.1910    0.0210   -2.1170 hc        1 MOL      0.054497
    114 N11         5.1780   -1.7270   -1.6880 n         1 MOL     -0.758958
    115 C36         6.5920   -1.3370   -1.4220 c3        1 MOL      0.565465
    116 C37         6.8020    0.1100   -1.1170 c         1 MOL      0.383307
    117 O19         7.4400    0.4520   -0.0910 o         1 MOL     -0.511933
    118 C38         7.5540   -1.7840   -2.5100 c3        1 MOL     -0.374500
    119 C39         9.0800   -1.8270   -2.2260 ca        1 MOL      0.085030
    120 C40         9.5310   -1.9210   -0.9300 ca        1 MOL     -0.096775
    121 C41        10.0090   -1.5550   -3.2540 ca        1 MOL     -0.096775
    122 C42        10.8790   -1.9260   -0.6570 ca        1 MOL     -0.178510
    123 C43        11.3960   -1.5080   -2.9490 ca        1 MOL     -0.178510
    124 C44        11.8660   -1.6620   -1.6010 ca        1 MOL     -0.057773
    125 H51         4.9640   -2.2800   -2.5090 hn        1 MOL      0.355421
    126 H52         6.8550   -1.8180   -0.4750 h1        1 MOL      0.030588
    127 H53         7.3610   -1.1600   -3.3840 hc        1 MOL      0.098430
    128 H54         7.4030   -2.8490   -2.7050 hc        1 MOL      0.098430
    129 H55         8.8950   -2.0770   -0.0650 ha        1 MOL      0.099561
    130 H56         9.7010   -1.5010   -4.2860 ha        1 MOL      0.099561
    131 H57        11.2320   -2.1790    0.3280 ha        1 MOL      0.115166
    132 H58        12.0510   -1.3270   -3.7990 ha        1 MOL      0.115166
    133 H59        12.9170   -1.6210   -1.3560 ha        1 MOL      0.098689
    134 N12         6.3040    1.1110   -1.8780 n         1 MOL     -0.235890
    135 C45         6.1740    2.5650   -1.5250 c3        1 MOL      0.024226
    136 C46         5.5530    2.8600   -0.1280 c         1 MOL      0.346704
    137 O20         5.9500    3.8010    0.5000 o         1 MOL     -0.510222
    138 C47         5.1950    3.2520   -2.4690 c3        1 MOL      0.001997
    139 C48         5.4140    2.3370   -3.7240 c3        1 MOL     -0.028328
    140 C49         5.5260    0.9440   -3.0550 c3        1 MOL      0.031972
    141 H60         7.1330    3.0930   -1.5620 h1        1 MOL      0.069251
    142 H61         4.1530    3.2270   -2.1840 hc        1 MOL      0.031913
    143 H62         5.4310    4.3090   -2.5910 hc        1 MOL      0.031913
    144 H63         4.5710    2.3740   -4.4150 hc        1 MOL      0.021300
    145 H64         6.2740    2.6480   -4.3160 hc        1 MOL      0.021300
    146 H65         4.5550    0.5960   -2.7050 h1        1 MOL      0.023313
    147 H66         6.0210    0.2920   -3.7820 h1        1 MOL      0.023313
    148 N13         4.6600    1.9920    0.3720 n         1 MOL     -0.010964
    149 C50         4.0560    2.2140    1.6910 c3        1 MOL     -0.289222
    150 C51         4.9120    1.5610    2.8790 c         1 MOL      0.478412
    151 O21         4.9880    2.0680    4.0160 o         1 MOL     -0.575964
    152 C52         2.5960    1.7360    1.6450 c3        1 MOL     -0.019836
    153 C53         1.7170    2.1040    0.4920 c3        1 MOL     -0.191914
    154 C54         0.2760    1.5710    0.5790 c         1 MOL      0.486535
    155 O22        -0.4920    2.0470   -0.2300 o         1 MOL     -0.607008
    156 O23        -0.1570    0.6190    1.2970 o         1 MOL     -0.607008
    157 H67         4.4910    1.1160   -0.1160 hn        1 MOL      0.134388
    158 H68         3.9480    3.2910    1.7920 h1        1 MOL      0.153344
    159 H69         2.0430    1.8980    2.5700 hc        1 MOL      0.075965
    160 H70         2.7040    0.6450    1.6840 hc        1 MOL      0.075965
    161 H71         2.2300    1.8010   -0.4200 hc        1 MOL      0.095386
    162 H72         1.5690    3.1840    0.5190 hc        1 MOL      0.095386
    163 N14         5.6020    0.4790    2.5930 n         1 MOL      0.032571
    164 C55         6.6300   -0.0990    3.5200 c3        1 MOL     -0.232334
    165 H73         7.4530   -0.5130    2.9360 h1        1 MOL      0.085231
    166 H74         7.0090    0.6850    4.1760 h1        1 MOL      0.085231
    167 H75         6.1770   -0.8890    4.1190 h1        1 MOL      0.085231
    168 H76         5.4890    0.1440    1.6490 hn        1 MOL      0.029472
    169 Ca1        -2.1280    0.0450   -0.3580 Ca        1 MOL      1.544850
    170 O24        -2.1390   -0.1420    2.6900 oh        1 MOL     -0.832715
    171 H77        -1.2280   -0.1440    2.3920 ho        1 MOL      0.405504
    172 H78        -2.1050    0.2390    3.5640 ho        1 MOL      0.405504
    173 O25        -4.0840   -1.0780    1.3370 oh        1 MOL     -0.832715
    174 H79        -4.9700   -0.8490    1.6290 ho        1 MOL      0.405504
    175 H80        -3.5200   -0.8200    2.0600 ho        1 MOL      0.405504
@<TRIPOS>BOND
     1    1    2 1   
     2    1    4 1   
     3    1    5 1   
     4    1    6 1   
     5    2    3 2   
     6    2    7 1   
     7    7    8 1   
     8    7   15 1   
     9    8    9 1   
    10    8   11 1   
    11    8   16 1   
    12    9   10 2   
    13    9   19 1   
    14   11   12 1   
    15   11   17 1   
    16   11   18 1   
    17   12   13 1   
    18   12   14 1   
    19   19   20 1   
    20   19   24 1   
    21   20   21 1   
    22   20   23 1   
    23   20   25 1   
    24   21   22 2   
    25   21   29 1   
    26   23   26 1   
    27   23   27 1   
    28   23   28 1   
    29   29   30 1   
    30   29   37 1   
    31   30   31 1   
    32   30   33 1   
    33   30   38 1   
    34   31   32 2   
    35   31   41 1   
    36   33   34 1   
    37   33   39 1   
    38   33   40 1   
    39   34   35 1   
    40   34   36 1   
    41   41   42 1   
    42   41   45 1   
    43   42   43 1   
    44   42   46 1   
    45   42   47 1   
    46   43   44 2   
    47   43   48 1   
    48   48   49 1   
    49   48   56 1   
    50   49   50 1   
    51   49   52 1   
    52   49   57 1   
    53   50   51 2   
    54   50   62 1   
    55   52   53 1   
    56   52   58 1   
    57   52   59 1   
    58   53   54 1   
    59   53   55 2   
    60   54   60 1   
    61   54   61 1   
    62   62   63 1   
    63   62   66 1   
    64   63   64 1   
    65   63   67 1   
    66   63   68 1   
    67   64   65 2   
    68   64   69 1   
    69   69   70 1   
    70   69   76 1   
    71   70   71 1   
    72   70   73 1   
    73   70   77 1   
    74   71   72 2   
    75   71   83 1   
    76   73   74 1   
    77   73   75 1   
    78   73   78 1   
    79   74   80 1   
    80   74   81 1   
    81   74   82 1   
    82   75   79 1   
    83   83   84 1   
    84   83   91 1   
    85   84   85 1   
    86   84   87 1   
    87   84   92 1   
    88   85   86 2   
    89   85  102 1   
    90   87   88 1   
    91   87   89 1   
    92   87   93 1   
    93   88   90 1   
    94   88   94 1   
    95   88   95 1   
    96   89   96 1   
    97   89   97 1   
    98   89   98 1   
    99   90   99 1   
   100   90  100 1   
   101   90  101 1   
   102  102  103 1   
   103  102  110 1   
   104  103  104 1   
   105  103  106 1   
   106  103  111 1   
   107  104  105 2   
   108  104  114 1   
   109  106  107 1   
   110  106  112 1   
   111  106  113 1   
   112  107  108 1   
   113  107  109 1   
   114  114  115 1   
   115  114  125 1   
   116  115  116 1   
   117  115  118 1   
   118  115  126 1   
   119  116  117 2   
   120  116  134 1   
   121  118  119 1   
   122  118  127 1   
   123  118  128 1   
   124  119  120 ar  
   125  119  121 ar  
   126  120  122 ar  
   127  120  129 1   
   128  121  123 ar  
   129  121  130 1   
   130  122  124 ar  
   131  122  131 1   
   132  123  124 ar  
   133  123  132 1   
   134  124  133 1   
   135  134  135 1   
   136  134  140 1   
   137  135  136 1   
   138  135  138 1   
   139  135  141 1   
   140  136  137 2   
   141  136  148 1   
   142  138  139 1   
   143  138  142 1   
   144  138  143 1   
   145  139  140 1   
   146  139  144 1   
   147  139  145 1   
   148  140  146 1   
   149  140  147 1   
   150  148  149 1   
   151  148  157 1   
   152  149  150 1   
   153  149  152 1   
   154  149  158 1   
   155  150  151 2   
   156  150  163 1   
   157  152  153 1   
   158  152  159 1   
   159  152  160 1   
   160  153  154 1   
   161  153  161 1   
   162  153  162 1   
   163  154  155 1   
   164  154  156 1   
   165  163  164 1   
   166  163  168 1   
   167  164  165 1   
   168  164  166 1   
   169  164  167 1   
   170  170  171 1   
   171  170  172 1   
   172  173  174 1   
   173  173  175 1   
@<TRIPOS>SUBSTRUCTURE
     1 MOL         1 TEMP              0 ****  ****    0 ROOT
