@<TRIPOS>MOLECULE
MOL
  189   185     1     0     0
SMALL
resp


@<TRIPOS>ATOM
      1 C1         -0.6450    2.9720    5.6580 c3        1 MOL     -0.317476
      2 C2         -0.9280    2.1860    4.3640 c         1 MOL      0.655660
      3 O1         -0.0070    2.0920    3.5810 o         1 MOL     -0.592813
      4 H1         -0.5440    4.0310    5.4250 hc        1 MOL      0.079691
      5 H2         -1.4700    2.8320    6.3570 hc        1 MOL      0.079691
      6 H3          0.2780    2.6090    6.1090 hc        1 MOL      0.079691
      7 N1         -2.1030    1.7350    3.9870 n         1 MOL     -0.504856
      8 C3         -2.5660    1.6390    2.5790 c3        1 MOL      0.110363
      9 C4         -2.9210    2.9970    1.9980 c         1 MOL      0.413850
     10 O2         -4.0480    3.5450    2.1980 o         1 MOL     -0.515696
     11 C5         -3.7510    0.6710    2.5710 c3        1 MOL     -0.414829
     12 C6         -4.3600    0.3940    1.1820 c         1 MOL      0.888192
     13 O3         -3.7370    0.7420    0.1070 o         1 MOL     -0.637775
     14 O4         -5.4690   -0.1910    1.2310 o         1 MOL     -0.637775
     15 H4         -2.8570    1.7090    4.6630 hn        1 MOL      0.309400
     16 H5         -1.7000    1.2810    2.0250 h1        1 MOL     -0.014195
     17 H6         -4.5260    1.1390    3.1780 hc        1 MOL      0.094129
     18 H7         -3.3470   -0.2810    2.9190 hc        1 MOL      0.094129
     19 N2         -1.9960    3.5820    1.2590 n         1 MOL     -0.167365
     20 C7         -2.1060    4.9370    0.6950 c3        1 MOL     -0.265756
     21 C8         -3.1720    5.1120   -0.4690 c         1 MOL      0.512695
     22 O5         -3.6970    6.2290   -0.6970 o         1 MOL     -0.567698
     23 C9         -0.7210    5.4940    0.2660 c3        1 MOL      0.120125
     24 C10         0.2220    5.9440    1.4350 c3        1 MOL      0.010667
     25 C11         1.7160    6.2890    1.0440 c3        1 MOL     -0.230933
     26 C12         2.5790    6.6360    2.2760 c3        1 MOL      0.140446
     27 N3          3.8140    7.3370    1.8560 n4        1 MOL     -0.413443
     28 H8         -1.1320    3.1260    1.0010 hn        1 MOL      0.245721
     29 H9         -2.4030    5.5520    1.5430 h1        1 MOL      0.125006
     30 H10        -0.8000    6.3690   -0.3800 hc        1 MOL      0.006536
     31 H11        -0.1330    4.7990   -0.3260 hc        1 MOL      0.006536
     32 H12         0.2740    5.1320    2.1580 hc        1 MOL      0.020320
     33 H13        -0.2260    6.7990    1.9410 hc        1 MOL      0.020320
     34 H14         1.7540    7.0840    0.2950 hc        1 MOL      0.072264
     35 H15         2.1100    5.3960    0.5510 hc        1 MOL      0.072264
     36 H16         2.7040    5.7460    2.8810 hx        1 MOL      0.081651
     37 H17         2.0300    7.2760    2.9630 hx        1 MOL      0.081651
     38 H18         4.4200    6.6350    1.4400 hn        1 MOL      0.337771
     39 H19         3.6080    7.9360    1.0730 hn        1 MOL      0.337771
     40 H20         4.2710    7.8960    2.5640 hn        1 MOL      0.337771
     41 N4         -3.4640    4.0430   -1.2080 n         1 MOL     -0.236325
     42 C13        -4.3090    4.0330   -2.3700 c3        1 MOL      0.011966
     43 C14        -5.5680    3.1670   -2.2660 c         1 MOL      0.399738
     44 O6         -6.4530    3.2210   -3.1190 o         1 MOL     -0.486925
     45 C15        -3.5050    3.8350   -3.6300 c3        1 MOL     -0.289519
     46 C16        -2.6600    2.6020   -3.5110 c         1 MOL      0.866279
     47 O7         -1.7390    2.4250   -4.3750 o         1 MOL     -0.732261
     48 O8         -2.8540    1.7390   -2.5870 o         1 MOL     -0.732261
     49 H21        -2.9810    3.1810   -1.0130 hn        1 MOL      0.184019
     50 H22        -4.6830    5.0520   -2.5540 h1        1 MOL      0.107679
     51 H23        -2.8400    4.6840   -3.7990 hc        1 MOL      0.080292
     52 H24        -4.2510    3.6380   -4.3880 hc        1 MOL      0.080292
     53 N5         -5.8260    2.4030   -1.1260 n         1 MOL     -0.093220
     54 C17        -7.2300    2.1090   -0.7690 c3        1 MOL     -0.222475
     55 C18        -7.7710    0.8060   -1.2980 c         1 MOL      0.546888
     56 O9         -8.8620    0.7190   -1.8640 o         1 MOL     -0.551684
     57 H25        -5.0700    2.2690   -0.4670 hn        1 MOL      0.110109
     58 H26        -7.8840    2.9670   -0.9230 h1        1 MOL      0.102047
     59 H27        -7.0960    1.8910    0.2880 h1        1 MOL      0.102047
     60 N6         -6.8890   -0.2410   -1.2220 n         1 MOL     -0.205226
     61 C19        -7.1850   -1.5930   -1.8080 c3        1 MOL      0.017058
     62 C20        -7.2890   -2.7130   -0.7510 c         1 MOL      0.266828
     63 O10        -7.6850   -3.8180   -1.0680 o         1 MOL     -0.515763
     64 C21        -6.0390   -1.9030   -2.8260 c3        1 MOL     -0.124979
     65 C22        -4.5500   -1.6760   -2.3590 c         1 MOL      0.646983
     66 O11        -4.1220   -2.1210   -1.3040 o         1 MOL     -0.720232
     67 O12        -3.7660   -1.1280   -3.1630 o         1 MOL     -0.720232
     68 H28        -5.9480   -0.0950   -0.8820 hn        1 MOL      0.071592
     69 H29        -8.1070   -1.5130   -2.3830 h1        1 MOL      0.108973
     70 H30        -6.2800   -1.2260   -3.6460 hc        1 MOL      0.060621
     71 H31        -6.1240   -2.9220   -3.1980 hc        1 MOL      0.060621
     72 N7         -6.8280   -2.5280    0.4150 n         1 MOL     -0.004450
     73 C23        -6.8370   -3.5520    1.4990 c3        1 MOL     -0.170755
     74 C24        -5.4800   -4.2350    1.7290 c         1 MOL      0.627826
     75 O13        -5.3470   -5.2910    2.3420 o         1 MOL     -0.605114
     76 H32        -6.4330   -1.6210    0.6290 hn        1 MOL      0.109378
     77 H33        -7.4860   -4.3840    1.2420 h1        1 MOL      0.092455
     78 H34        -7.1440   -3.0120    2.3900 h1        1 MOL      0.092455
     79 N8         -4.3900   -3.6850    1.1380 n         1 MOL     -0.407635
     80 C25        -3.0710   -4.3300    1.0110 c3        1 MOL     -0.034791
     81 C26        -1.9540   -3.2510    1.1090 c         1 MOL      0.623648
     82 O14        -2.1770   -2.0570    0.7400 o         1 MOL     -0.692286
     83 C27        -2.8690   -5.1850   -0.2610 c3        1 MOL      0.558192
     84 C28        -3.3890   -6.6160   -0.2050 c3        1 MOL     -0.489789
     85 O15        -3.5980   -4.6730   -1.3440 oh        1 MOL     -0.759718
     86 H35        -4.6810   -2.9290    0.5360 hn        1 MOL      0.240847
     87 H36        -2.9200   -5.0470    1.8240 h1        1 MOL      0.056271
     88 H37        -1.8130   -5.0590   -0.4880 h1        1 MOL     -0.097367
     89 H38        -3.7900   -3.7410   -1.2320 ho        1 MOL      0.575137
     90 H39        -4.4280   -6.5210    0.1020 hc        1 MOL      0.127196
     91 H40        -3.4030   -7.2140   -1.1180 hc        1 MOL      0.127196
     92 H41        -2.6830   -7.2070    0.3830 hc        1 MOL      0.127196
     93 N9         -0.8110   -3.6930    1.4870 n         1 MOL     -0.570951
     94 C29         0.4530   -2.8920    1.7040 c3        1 MOL      0.212724
     95 C30         1.6420   -3.3940    0.9800 c         1 MOL      0.619033
     96 O16         2.0690   -4.4990    1.2250 o         1 MOL     -0.568726
     97 C31         0.7230   -2.5800    3.2040 c3        1 MOL     -0.130866
     98 C32        -0.1320   -1.3750    3.7450 c3        1 MOL     -0.038439
     99 C33         2.1840   -2.3040    3.6580 c3        1 MOL     -0.216138
    100 C34        -0.0510   -1.1610    5.2850 c3        1 MOL     -0.082252
    101 H42        -0.7230   -4.6730    1.7090 hn        1 MOL      0.300466
    102 H43         0.2500   -1.9430    1.2050 h1        1 MOL      0.020948
    103 H44         0.4870   -3.5310    3.6820 hc        1 MOL      0.053490
    104 H45        -1.1730   -1.5440    3.4590 hc        1 MOL      0.097378
    105 H46         0.2860   -0.5300    3.2010 hc        1 MOL      0.097378
    106 H47         2.3190   -2.2570    4.7340 hc        1 MOL      0.053211
    107 H48         2.8410   -2.9800    3.1090 hc        1 MOL      0.053211
    108 H49         2.4670   -1.3320    3.2530 hc        1 MOL      0.053211
    109 H50         0.8280   -0.5770    5.5390 hc        1 MOL      0.024255
    110 H51        -0.9390   -0.6660    5.6790 hc        1 MOL      0.024255
    111 H52        -0.1330   -2.0830    5.8630 hc        1 MOL      0.024255
    112 N10         2.0360   -2.6240   -0.0140 n         1 MOL     -0.399308
    113 C35         3.2150   -2.9270   -0.9450 c3        1 MOL     -0.131073
    114 C36         4.5360   -2.6920   -0.1870 c         1 MOL      0.404171
    115 O17         4.5230   -1.9500    0.8080 o         1 MOL     -0.290574
    116 C37         3.1510   -2.2600   -2.3210 c3        1 MOL      0.426675
    117 C38         1.9590   -2.5710   -3.1090 c3        1 MOL     -0.458825
    118 O18         2.9390   -0.8770   -2.0930 oh        1 MOL     -0.613569
    119 H53         1.5670   -1.7590   -0.2360 hn        1 MOL      0.223959
    120 H54         3.2000   -3.9950   -1.1150 h1        1 MOL      0.108214
    121 H55         4.0440   -2.4840   -2.9020 h1        1 MOL     -0.010435
    122 H56         2.0570   -0.7540   -1.7300 ho        1 MOL      0.334709
    123 H57         1.9470   -3.6410   -3.3450 hc        1 MOL      0.124828
    124 H58         1.0310   -2.1790   -2.6990 hc        1 MOL      0.124828
    125 H59         1.9960   -2.0100   -4.0440 hc        1 MOL      0.124828
    126 N11         5.6540   -3.2500   -0.6030 n         1 MOL     -0.316313
    127 C39         6.8810   -2.9250    0.1650 c3        1 MOL      0.053202
    128 C40         7.1580   -1.4110    0.1820 c         1 MOL      0.108806
    129 O19         7.6690   -0.9360    1.1800 o         1 MOL     -0.434575
    130 C41         8.1110   -3.7010   -0.4540 c3        1 MOL      0.362186
    131 C42         9.3440   -3.9420    0.4610 c3        1 MOL     -0.423098
    132 O20         7.6370   -4.9610   -0.9240 oh        1 MOL     -0.563862
    133 H60         5.6850   -3.9730   -1.2970 hn        1 MOL      0.225228
    134 H61         6.7230   -3.2520    1.1900 h1        1 MOL      0.132650
    135 H62         8.4900   -3.1280   -1.2970 h1        1 MOL     -0.056270
    136 H63         8.3210   -5.2730   -1.5210 ho        1 MOL      0.373060
    137 H64         8.9100   -4.4380    1.3290 hc        1 MOL      0.121246
    138 H65        10.1890   -4.5600    0.1790 hc        1 MOL      0.121246
    139 H66         9.8180   -3.0090    0.7810 hc        1 MOL      0.121246
    140 N12         6.7950   -0.7040   -0.9010 n         1 MOL     -0.034513
    141 C43         6.7960    0.8280   -0.9830 c3        1 MOL     -0.015019
    142 C44         5.8020    1.6230   -0.1340 c         1 MOL      0.438422
    143 O21         5.9550    2.9000    0.0680 o         1 MOL     -0.552719
    144 C45         7.0590    1.4580   -2.3140 c3        1 MOL     -0.126153
    145 C46         8.4810    1.2530   -2.8610 c3        1 MOL     -0.119359
    146 C47         8.8200    2.0140   -4.1400 c3        1 MOL     -0.017683
    147 C48        10.3430    1.9740   -4.4980 c3        1 MOL     -0.055787
    148 N13        10.8080    0.5740   -4.6490 n4        1 MOL     -0.418312
    149 H67         6.6780   -1.2300   -1.7510 hn        1 MOL      0.177448
    150 H68         7.6670    1.1120   -0.3840 h1        1 MOL      0.076869
    151 H69         6.8770    2.5230   -2.1590 hc        1 MOL      0.079824
    152 H70         6.3360    1.0980   -3.0590 hc        1 MOL      0.079824
    153 H71         8.7370    0.2050   -2.9100 hc        1 MOL      0.051152
    154 H72         9.0960    1.7340   -2.0960 hc        1 MOL      0.051152
    155 H73         8.5320    3.0590   -4.0250 hc        1 MOL      0.056219
    156 H74         8.2010    1.6620   -4.9660 hc        1 MOL      0.056219
    157 H75        10.7000    2.4900   -3.6080 hx        1 MOL      0.127635
    158 H76        10.5160    2.6190   -5.3580 hx        1 MOL      0.127635
    159 H77        10.1460   -0.1250   -4.3440 hn        1 MOL      0.310920
    160 H78        10.9310    0.4490   -5.6410 hn        1 MOL      0.310920
    161 H79        11.5930    0.3070   -4.0820 hn        1 MOL      0.310920
    162 N14         4.7760    0.9200    0.4360 n         1 MOL     -0.121018
    163 C49         3.8660    1.3940    1.4840 c3        1 MOL     -0.028367
    164 C50         4.4230    1.1350    2.8650 c         1 MOL      0.426145
    165 O22         4.4380    2.0660    3.6910 o         1 MOL     -0.541275
    166 C51         2.4850    0.7870    1.2300 c3        1 MOL      0.142367
    167 C52         1.8380    1.7140    0.1530 c3        1 MOL      0.014691
    168 C53         0.5410    1.1360   -0.3230 c         1 MOL      0.660015
    169 O23         0.5220   -0.0600   -0.6560 o         1 MOL     -0.682265
    170 O24        -0.5410    1.7790   -0.4030 o         1 MOL     -0.682265
    171 H80         4.7480   -0.0600    0.2130 hn        1 MOL     -0.030974
    172 H81         3.8610    2.4790    1.3830 h1        1 MOL      0.051116
    173 H82         1.8120    0.7750    2.0840 hc        1 MOL     -0.005646
    174 H83         2.6510   -0.2380    0.8930 hc        1 MOL     -0.005646
    175 H84         2.5700    2.0060   -0.6040 hc        1 MOL     -0.011368
    176 H85         1.6460    2.6990    0.5900 hc        1 MOL     -0.011368
    177 N15         4.8600   -0.1270    3.0860 n         1 MOL     -0.055159
    178 C54         5.5390   -0.6210    4.2770 c3        1 MOL     -0.321263
    179 H86         5.4630   -1.7070    4.3150 h1        1 MOL      0.114434
    180 H87         6.5900   -0.3320    4.2430 h1        1 MOL      0.114434
    181 H88         5.0730   -0.1930    5.1650 h1        1 MOL      0.114434
    182 H89         4.7110   -0.8720    2.4330 hn        1 MOL      0.144133
    183 Ca1        -2.0170   -0.3580   -1.4730 Ca        1 MOL      1.765189
    184 O25        -0.7820    0.0530   -3.7710 oh        1 MOL     -0.861529
    185 H90        -0.9660    0.9490   -4.0380 ho        1 MOL      0.398740
    186 H91        -0.5830   -0.4120   -4.5860 ho        1 MOL      0.398740
    187 O26        -1.4400   -2.8490   -2.2030 oh        1 MOL     -0.861529
    188 H92        -1.1550   -3.0310   -3.1040 ho        1 MOL      0.398740
    189 H93        -2.1630   -3.4580   -2.0530 ho        1 MOL      0.398740
@<TRIPOS>BOND
     1    1    2 1   
     2    1    4 1   
     3    1    5 1   
     4    1    6 1   
     5    2    3 2   
     6    2    7 1   
     7    7    8 1   
     8    7   15 1   
     9    8    9 1   
    10    8   11 1   
    11    8   16 1   
    12    9   10 2   
    13    9   19 1   
    14   11   12 1   
    15   11   17 1   
    16   11   18 1   
    17   12   13 1   
    18   12   14 1   
    19   19   20 1   
    20   19   28 1   
    21   20   21 1   
    22   20   23 1   
    23   20   29 1   
    24   21   22 2   
    25   21   41 1   
    26   23   24 1   
    27   23   30 1   
    28   23   31 1   
    29   24   25 1   
    30   24   32 1   
    31   24   33 1   
    32   25   26 1   
    33   25   34 1   
    34   25   35 1   
    35   26   27 1   
    36   26   36 1   
    37   26   37 1   
    38   27   38 1   
    39   27   39 1   
    40   27   40 1   
    41   41   42 1   
    42   41   49 1   
    43   42   43 1   
    44   42   45 1   
    45   42   50 1   
    46   43   44 2   
    47   43   53 1   
    48   45   46 1   
    49   45   51 1   
    50   45   52 1   
    51   46   47 1   
    52   46   48 1   
    53   53   54 1   
    54   53   57 1   
    55   54   55 1   
    56   54   58 1   
    57   54   59 1   
    58   55   56 2   
    59   55   60 1   
    60   60   61 1   
    61   60   68 1   
    62   61   62 1   
    63   61   64 1   
    64   61   69 1   
    65   62   63 2   
    66   62   72 1   
    67   64   65 1   
    68   64   70 1   
    69   64   71 1   
    70   65   66 1   
    71   65   67 1   
    72   72   73 1   
    73   72   76 1   
    74   73   74 1   
    75   73   77 1   
    76   73   78 1   
    77   74   75 2   
    78   74   79 1   
    79   79   80 1   
    80   79   86 1   
    81   80   81 1   
    82   80   83 1   
    83   80   87 1   
    84   81   82 2   
    85   81   93 1   
    86   83   84 1   
    87   83   85 1   
    88   83   88 1   
    89   84   90 1   
    90   84   91 1   
    91   84   92 1   
    92   85   89 1   
    93   93   94 1   
    94   93  101 1   
    95   94   95 1   
    96   94   97 1   
    97   94  102 1   
    98   95   96 2   
    99   95  112 1   
   100   97   98 1   
   101   97   99 1   
   102   97  103 1   
   103   98  100 1   
   104   98  104 1   
   105   98  105 1   
   106   99  106 1   
   107   99  107 1   
   108   99  108 1   
   109  100  109 1   
   110  100  110 1   
   111  100  111 1   
   112  112  113 1   
   113  112  119 1   
   114  113  114 1   
   115  113  116 1   
   116  113  120 1   
   117  114  115 2   
   118  114  126 1   
   119  116  117 1   
   120  116  118 1   
   121  116  121 1   
   122  117  123 1   
   123  117  124 1   
   124  117  125 1   
   125  118  122 1   
   126  126  127 1   
   127  126  133 1   
   128  127  128 1   
   129  127  130 1   
   130  127  134 1   
   131  128  129 2   
   132  128  140 1   
   133  130  131 1   
   134  130  132 1   
   135  130  135 1   
   136  131  137 1   
   137  131  138 1   
   138  131  139 1   
   139  132  136 1   
   140  140  141 1   
   141  140  149 1   
   142  141  142 1   
   143  141  144 1   
   144  141  150 1   
   145  142  143 2   
   146  142  162 1   
   147  144  145 1   
   148  144  151 1   
   149  144  152 1   
   150  145  146 1   
   151  145  153 1   
   152  145  154 1   
   153  146  147 1   
   154  146  155 1   
   155  146  156 1   
   156  147  148 1   
   157  147  157 1   
   158  147  158 1   
   159  148  159 1   
   160  148  160 1   
   161  148  161 1   
   162  162  163 1   
   163  162  171 1   
   164  163  164 1   
   165  163  166 1   
   166  163  172 1   
   167  164  165 2   
   168  164  177 1   
   169  166  167 1   
   170  166  173 1   
   171  166  174 1   
   172  167  168 1   
   173  167  175 1   
   174  167  176 1   
   175  168  169 1   
   176  168  170 1   
   177  177  178 1   
   178  177  182 1   
   179  178  179 1   
   180  178  180 1   
   181  178  181 1   
   182  184  185 1   
   183  184  186 1   
   184  187  188 1   
   185  187  189 1   
@<TRIPOS>SUBSTRUCTURE
     1 MOL         1 TEMP              0 ****  ****    0 ROOT
