@<TRIPOS>MOLECULE
MOL
  189   185     1     0     0
SMALL
resp


@<TRIPOS>ATOM
      1 C1          0.9520    1.8840    5.6140 c3        1 MOL     -0.300245
      2 C2          0.3760    2.1750    4.2430 c         1 MOL      0.736092
      3 O1          1.0760    2.7520    3.4200 o         1 MOL     -0.647328
      4 H1          1.9520    2.3130    5.6860 hc        1 MOL      0.077935
      5 H2          0.3120    2.3240    6.3790 hc        1 MOL      0.077935
      6 H3          1.0090    0.8060    5.7640 hc        1 MOL      0.077935
      7 N1         -0.8210    1.6770    3.8600 n         1 MOL     -0.470857
      8 C3         -1.6360    1.7550    2.6360 c3        1 MOL      0.044067
      9 C4         -1.9670    3.2350    2.2390 c         1 MOL      0.290623
     10 O2         -2.5240    3.9820    3.0210 o         1 MOL     -0.524759
     11 C5         -2.9440    0.9530    2.8070 c3        1 MOL     -0.119627
     12 C6         -3.8010    1.1990    1.6080 c         1 MOL      0.631687
     13 O3         -4.8010    1.9470    1.7640 o         1 MOL     -0.657274
     14 O4         -3.3380    0.7950    0.5670 o         1 MOL     -0.657274
     15 H4         -1.2750    1.1980    4.6250 hn        1 MOL      0.255498
     16 H5         -1.0970    1.2470    1.8320 h1        1 MOL      0.060578
     17 H6         -3.4770    1.1810    3.7330 hc        1 MOL      0.034189
     18 H7         -2.6660   -0.1020    2.8420 hc        1 MOL      0.034189
     19 N2         -1.5700    3.7440    1.0700 n         1 MOL     -0.020160
     20 C7         -1.8720    5.0470    0.5150 c3        1 MOL      0.095294
     21 C8         -3.0310    5.0950   -0.5660 c         1 MOL      0.568429
     22 O5         -3.0890    6.0480   -1.3310 o         1 MOL     -0.565334
     23 C9         -0.5680    5.7240    0.0990 c3        1 MOL     -0.073590
     24 C10         0.4260    5.8970    1.1900 c3        1 MOL      0.234449
     25 C11         1.5500    6.8720    0.9210 c3        1 MOL     -0.271325
     26 C12         1.1620    8.3640    0.9380 c3        1 MOL      0.044049
     27 N3          1.0440    8.9850    2.2610 n4        1 MOL     -0.419138
     28 H8         -1.0870    3.0470    0.5110 hn        1 MOL      0.125050
     29 H9         -2.2600    5.6640    1.3310 h1        1 MOL      0.002068
     30 H10        -0.9110    6.6920   -0.2800 hc        1 MOL      0.016952
     31 H11        -0.0490    5.2650   -0.7400 hc        1 MOL      0.016952
     32 H12         0.7930    4.8910    1.3680 hc        1 MOL     -0.029403
     33 H13        -0.0540    6.2110    2.1250 hc        1 MOL     -0.029403
     34 H14         2.0710    6.6510   -0.0060 hc        1 MOL      0.097200
     35 H15         2.3200    6.7470    1.6890 hc        1 MOL      0.097200
     36 H16         0.3680    8.6320    0.2420 hx        1 MOL      0.088119
     37 H17         2.0220    8.8230    0.4300 hx        1 MOL      0.088119
     38 H18         0.2420    8.6690    2.7800 hn        1 MOL      0.344546
     39 H19         1.8060    8.6080    2.8050 hn        1 MOL      0.344546
     40 H20         1.0240   10.0000    2.2430 hn        1 MOL      0.344546
     41 N4         -3.8270    4.0640   -0.6850 n         1 MOL     -0.566516
     42 C13        -4.7300    3.9950   -1.8620 c3        1 MOL      0.053970
     43 C14        -5.8760    2.9210   -1.6840 c         1 MOL      0.421404
     44 O6         -6.2360    2.2760   -2.6830 o         1 MOL     -0.461308
     45 C15        -3.9490    3.7990   -3.1950 c3        1 MOL     -0.207421
     46 C16        -2.9290    2.6440   -3.2320 c         1 MOL      0.801342
     47 O7         -2.8250    1.8170   -2.2700 o         1 MOL     -0.643686
     48 O8         -2.0390    2.6610   -4.0970 o         1 MOL     -0.643686
     49 H21        -3.7160    3.2190   -0.1400 hn        1 MOL      0.345858
     50 H22        -5.1950    4.9760   -1.9360 h1        1 MOL      0.095995
     51 H23        -3.3550    4.7100   -3.3010 hc        1 MOL      0.050833
     52 H24        -4.6120    3.7350   -4.0620 hc        1 MOL      0.050833
     53 N5         -6.3270    2.6710   -0.4240 n         1 MOL     -0.396677
     54 C17        -7.6160    1.9640    0.0210 c3        1 MOL     -0.195818
     55 C18        -7.8030    0.4530   -0.4650 c         1 MOL      0.570501
     56 O9         -8.9010   -0.1400   -0.2260 o         1 MOL     -0.629451
     57 H25        -5.7020    2.9680    0.3090 hn        1 MOL      0.293172
     58 H26        -8.4970    2.5040   -0.3090 h1        1 MOL      0.133473
     59 H27        -7.6030    1.8630    1.1080 h1        1 MOL      0.133473
     60 N6         -6.9160   -0.1540   -1.2550 n         1 MOL     -0.259564
     61 C19        -7.0830   -1.3900   -1.9480 c3        1 MOL     -0.051060
     62 C20        -7.1330   -2.6940   -1.1000 c         1 MOL      0.417836
     63 O10        -7.0470   -3.8390   -1.6180 o         1 MOL     -0.517193
     64 C21        -6.0930   -1.6110   -3.1170 c3        1 MOL     -0.220676
     65 C22        -4.6550   -1.3110   -2.7500 c         1 MOL      0.681077
     66 O11        -4.2370   -1.5420   -1.5600 o         1 MOL     -0.704720
     67 O12        -3.8970   -0.7440   -3.5660 o         1 MOL     -0.704720
     68 H28        -6.0960    0.4240   -1.3740 hn        1 MOL      0.206694
     69 H29        -8.0430   -1.2670   -2.4620 h1        1 MOL      0.122597
     70 H30        -6.3170   -0.8200   -3.8330 hc        1 MOL      0.086780
     71 H31        -6.2370   -2.5800   -3.5920 hc        1 MOL      0.086780
     72 N7         -7.2240   -2.5830    0.2370 n         1 MOL     -0.237169
     73 C23        -7.0710   -3.6020    1.2350 c3        1 MOL     -0.078545
     74 C24        -5.7110   -4.3110    1.2910 c         1 MOL      0.469934
     75 O13        -5.7480   -5.3310    1.9720 o         1 MOL     -0.536737
     76 H32        -7.1390   -1.6600    0.6170 hn        1 MOL      0.245930
     77 H33        -7.8890   -4.3200    1.1660 h1        1 MOL      0.089660
     78 H34        -7.2470   -3.0860    2.1760 h1        1 MOL      0.089660
     79 N8         -4.5410   -3.8590    0.7410 n         1 MOL     -0.066404
     80 C25        -3.2050   -4.4130    0.9510 c3        1 MOL     -0.406889
     81 C26        -2.1320   -3.3410    1.1950 c         1 MOL      0.751439
     82 O14        -2.2790   -2.2470    0.6480 o         1 MOL     -0.580502
     83 C27        -2.8540   -5.3270   -0.2510 c3        1 MOL      0.401502
     84 C28        -3.5230   -6.7010    0.0010 c3        1 MOL     -0.611488
     85 O15        -3.2340   -4.8020   -1.5300 oh        1 MOL     -0.566091
     86 H35        -4.5130   -2.9890    0.2360 hn        1 MOL      0.109287
     87 H36        -3.1490   -5.0510    1.8270 h1        1 MOL      0.149668
     88 H37        -1.7740   -5.4110   -0.3550 h1        1 MOL      0.053929
     89 H38        -4.1070   -4.4100   -1.3900 ho        1 MOL      0.376688
     90 H39        -3.1880   -7.0540    0.9760 hc        1 MOL      0.167281
     91 H40        -4.6080   -6.7190    0.0960 hc        1 MOL      0.167281
     92 H41        -3.1140   -7.4050   -0.7260 hc        1 MOL      0.167281
     93 N9         -0.9920   -3.6640    1.7960 n         1 MOL     -0.604245
     94 C29         0.2470   -2.8500    1.9350 c3        1 MOL      0.049491
     95 C30         1.2950   -3.4800    0.9120 c         1 MOL      0.345603
     96 O16         1.6740   -4.6780    0.9390 o         1 MOL     -0.546521
     97 C31         0.7290   -2.9610    3.3960 c3        1 MOL      0.210757
     98 C32        -0.2640   -2.2920    4.3790 c3        1 MOL      0.341192
     99 C33         2.1330   -2.2360    3.4930 c3        1 MOL     -0.438782
    100 C34        -0.0060   -2.7220    5.8620 c3        1 MOL     -0.316645
    101 H42        -0.9990   -4.5750    2.2480 hn        1 MOL      0.297276
    102 H43         0.0580   -1.8250    1.6150 h1        1 MOL      0.103932
    103 H44         0.9100   -4.0080    3.6500 hc        1 MOL     -0.015468
    104 H45        -1.2360   -2.6860    4.0960 hc        1 MOL     -0.104648
    105 H46        -0.2250   -1.2110    4.2170 hc        1 MOL     -0.104648
    106 H47         2.8250   -2.7430    2.8190 hc        1 MOL      0.083824
    107 H48         2.0670   -1.1860    3.1940 hc        1 MOL      0.083824
    108 H49         2.5500   -2.3360    4.4930 hc        1 MOL      0.083824
    109 H50        -0.5890   -2.0420    6.4790 hc        1 MOL      0.068804
    110 H51        -0.4120   -3.7440    5.8560 hc        1 MOL      0.068804
    111 H52         1.0580   -2.6790    6.0680 hc        1 MOL      0.068804
    112 N10         1.8320   -2.6550    0.0380 n         1 MOL      0.078478
    113 C35         3.0070   -2.9960   -0.8490 c3        1 MOL      0.015496
    114 C36         4.3640   -2.8830   -0.0850 c         1 MOL      0.306603
    115 O17         4.5540   -2.2730    0.9120 o         1 MOL     -0.207431
    116 C37         3.0470   -2.2690   -2.1760 c3        1 MOL      0.181199
    117 C38         1.7360   -2.5710   -2.9680 c3        1 MOL     -0.181577
    118 O18         3.0450   -0.8670   -2.0460 oh        1 MOL     -0.584098
    119 H53         1.4700   -1.7300   -0.1250 hn        1 MOL      0.019624
    120 H54         2.8170   -4.0430   -1.0820 h1        1 MOL      0.051473
    121 H55         3.8790   -2.5970   -2.8070 h1        1 MOL      0.062150
    122 H56         2.3530   -0.5390   -1.4620 ho        1 MOL      0.396987
    123 H57         1.8930   -3.4430   -3.6030 hc        1 MOL      0.046153
    124 H58         0.9120   -2.7590   -2.2780 hc        1 MOL      0.046153
    125 H59         1.5530   -1.7970   -3.7150 hc        1 MOL      0.046153
    126 N11         5.3990   -3.4550   -0.7760 n         1 MOL     -0.380608
    127 C39         6.8220   -3.3520   -0.2810 c3        1 MOL      0.024070
    128 C40         7.3450   -1.9520   -0.2720 c         1 MOL      0.374256
    129 O19         7.9000   -1.5720    0.7590 o         1 MOL     -0.474938
    130 C41         7.6630   -4.2570   -1.1810 c3        1 MOL      0.567915
    131 C42         9.0260   -4.5540   -0.4870 c3        1 MOL     -0.596530
    132 O20         7.0420   -5.4870   -1.5510 oh        1 MOL     -0.653391
    133 H60         5.2400   -3.7850   -1.7090 hn        1 MOL      0.199985
    134 H61         6.8340   -3.6740    0.7620 h1        1 MOL      0.105425
    135 H62         7.8550   -3.7650   -2.1320 h1        1 MOL     -0.089460
    136 H63         7.3300   -5.7500   -2.4280 ho        1 MOL      0.402680
    137 H64         8.7800   -5.1930    0.3590 hc        1 MOL      0.155771
    138 H65         9.6450   -5.0710   -1.2230 hc        1 MOL      0.155771
    139 H66         9.5160   -3.6310   -0.1940 hc        1 MOL      0.155771
    140 N12         7.0920   -1.1930   -1.3330 n         1 MOL     -0.450001
    141 C43         7.1750    0.2760   -1.3720 c3        1 MOL      0.159985
    142 C44         6.4410    0.9820   -0.2600 c         1 MOL      0.217008
    143 O21         6.9480    1.9170    0.3970 o         1 MOL     -0.473631
    144 C45         6.5080    0.7250   -2.6570 c3        1 MOL     -0.182678
    145 C46         6.4470    2.3100   -2.8860 c3        1 MOL     -0.197064
    146 C47         7.8650    3.0290   -3.0950 c3        1 MOL      0.076573
    147 C48         8.7280    2.5240   -4.2330 c3        1 MOL      0.012440
    148 N13        10.0900    3.0960   -4.2400 n4        1 MOL     -0.191302
    149 H67         6.6890   -1.6260   -2.1530 hn        1 MOL      0.272342
    150 H68         8.1860    0.6640   -1.2710 h1        1 MOL      0.078835
    151 H69         5.4630    0.4560   -2.7610 hc        1 MOL      0.075516
    152 H70         7.1350    0.2230   -3.3890 hc        1 MOL      0.075516
    153 H71         5.8940    2.7940   -2.0720 hc        1 MOL      0.102375
    154 H72         5.8910    2.4280   -3.8130 hc        1 MOL      0.102375
    155 H73         8.3450    2.9080   -2.1270 hc        1 MOL      0.012303
    156 H74         7.6970    4.0970   -3.2510 hc        1 MOL      0.012303
    157 H75         8.1640    2.6720   -5.1580 hx        1 MOL      0.066078
    158 H76         8.9350    1.4690   -4.0740 hx        1 MOL      0.066078
    159 H77        10.1110    4.0670   -4.5340 hn        1 MOL      0.232697
    160 H78        10.4310    3.1950   -3.2960 hn        1 MOL      0.232697
    161 H79        10.7260    2.6090   -4.8510 hn        1 MOL      0.232697
    162 N14         5.1770    0.6250    0.0050 n         1 MOL     -0.009278
    163 C49         4.4010    1.2660    1.1320 c3        1 MOL     -0.045169
    164 C50         5.0170    0.9250    2.4720 c         1 MOL      0.270562
    165 O22         5.2750    1.8740    3.2790 o         1 MOL     -0.533194
    166 C51         2.9490    0.7350    1.0090 c3        1 MOL      0.061007
    167 C52         1.9730    1.6460    0.1370 c3        1 MOL     -0.132470
    168 C53         0.6510    0.9670   -0.2790 c         1 MOL      0.696387
    169 O23         0.4840   -0.2610   -0.3300 o         1 MOL     -0.707567
    170 O24        -0.3340    1.7140   -0.5270 o         1 MOL     -0.707567
    171 H80         4.6950    0.0420   -0.6730 hn        1 MOL      0.102257
    172 H81         4.4980    2.3380    0.9870 h1        1 MOL      0.083866
    173 H82         2.5980    0.8630    2.0210 hc        1 MOL      0.029469
    174 H83         2.9630   -0.3240    0.7250 hc        1 MOL      0.029469
    175 H84         2.5610    1.8480   -0.7640 hc        1 MOL      0.049807
    176 H85         1.8370    2.5920    0.6610 hc        1 MOL      0.049807
    177 N15         5.5690   -0.2340    2.6260 n         1 MOL      0.201003
    178 C54         6.2750   -0.6040    3.7970 c3        1 MOL     -0.234724
    179 H86         7.2120   -0.0500    3.8450 h1        1 MOL      0.081965
    180 H87         5.6710   -0.3730    4.6750 h1        1 MOL      0.081965
    181 H88         6.4860   -1.6730    3.7720 h1        1 MOL      0.081965
    182 H89         5.2520   -0.9830    2.0150 hn        1 MOL     -0.047372
    183 Ca1        -1.9800   -0.3720   -1.2850 Ca        1 MOL      1.692564
    184 O25        -1.0830   -0.3890   -3.8510 oh        1 MOL     -0.792517
    185 H90        -1.2310   -1.3200   -4.0320 ho        1 MOL      0.377379
    186 H91        -1.8830    0.0520   -4.1260 ho        1 MOL      0.377379
    187 O26        -1.5580   -2.8710   -2.1550 oh        1 MOL     -0.792517
    188 H92        -2.2330   -3.5300   -1.9520 ho        1 MOL      0.377379
    189 H93        -1.2100   -3.1390   -3.0050 ho        1 MOL      0.377379
@<TRIPOS>BOND
     1    1    2 1   
     2    1    4 1   
     3    1    5 1   
     4    1    6 1   
     5    2    3 2   
     6    2    7 1   
     7    7    8 1   
     8    7   15 1   
     9    8    9 1   
    10    8   11 1   
    11    8   16 1   
    12    9   10 2   
    13    9   19 1   
    14   11   12 1   
    15   11   17 1   
    16   11   18 1   
    17   12   13 1   
    18   12   14 1   
    19   19   20 1   
    20   19   28 1   
    21   20   21 1   
    22   20   23 1   
    23   20   29 1   
    24   21   22 2   
    25   21   41 1   
    26   23   24 1   
    27   23   30 1   
    28   23   31 1   
    29   24   25 1   
    30   24   32 1   
    31   24   33 1   
    32   25   26 1   
    33   25   34 1   
    34   25   35 1   
    35   26   27 1   
    36   26   36 1   
    37   26   37 1   
    38   27   38 1   
    39   27   39 1   
    40   27   40 1   
    41   41   42 1   
    42   41   49 1   
    43   42   43 1   
    44   42   45 1   
    45   42   50 1   
    46   43   44 2   
    47   43   53 1   
    48   45   46 1   
    49   45   51 1   
    50   45   52 1   
    51   46   47 1   
    52   46   48 1   
    53   53   54 1   
    54   53   57 1   
    55   54   55 1   
    56   54   58 1   
    57   54   59 1   
    58   55   56 2   
    59   55   60 1   
    60   60   61 1   
    61   60   68 1   
    62   61   62 1   
    63   61   64 1   
    64   61   69 1   
    65   62   63 2   
    66   62   72 1   
    67   64   65 1   
    68   64   70 1   
    69   64   71 1   
    70   65   66 1   
    71   65   67 1   
    72   72   73 1   
    73   72   76 1   
    74   73   74 1   
    75   73   77 1   
    76   73   78 1   
    77   74   75 2   
    78   74   79 1   
    79   79   80 1   
    80   79   86 1   
    81   80   81 1   
    82   80   83 1   
    83   80   87 1   
    84   81   82 2   
    85   81   93 1   
    86   83   84 1   
    87   83   85 1   
    88   83   88 1   
    89   84   90 1   
    90   84   91 1   
    91   84   92 1   
    92   85   89 1   
    93   93   94 1   
    94   93  101 1   
    95   94   95 1   
    96   94   97 1   
    97   94  102 1   
    98   95   96 2   
    99   95  112 1   
   100   97   98 1   
   101   97   99 1   
   102   97  103 1   
   103   98  100 1   
   104   98  104 1   
   105   98  105 1   
   106   99  106 1   
   107   99  107 1   
   108   99  108 1   
   109  100  109 1   
   110  100  110 1   
   111  100  111 1   
   112  112  113 1   
   113  112  119 1   
   114  113  114 1   
   115  113  116 1   
   116  113  120 1   
   117  114  115 2   
   118  114  126 1   
   119  116  117 1   
   120  116  118 1   
   121  116  121 1   
   122  117  123 1   
   123  117  124 1   
   124  117  125 1   
   125  118  122 1   
   126  126  127 1   
   127  126  133 1   
   128  127  128 1   
   129  127  130 1   
   130  127  134 1   
   131  128  129 2   
   132  128  140 1   
   133  130  131 1   
   134  130  132 1   
   135  130  135 1   
   136  131  137 1   
   137  131  138 1   
   138  131  139 1   
   139  132  136 1   
   140  140  141 1   
   141  140  149 1   
   142  141  142 1   
   143  141  144 1   
   144  141  150 1   
   145  142  143 2   
   146  142  162 1   
   147  144  145 1   
   148  144  151 1   
   149  144  152 1   
   150  145  146 1   
   151  145  153 1   
   152  145  154 1   
   153  146  147 1   
   154  146  155 1   
   155  146  156 1   
   156  147  148 1   
   157  147  157 1   
   158  147  158 1   
   159  148  159 1   
   160  148  160 1   
   161  148  161 1   
   162  162  163 1   
   163  162  171 1   
   164  163  164 1   
   165  163  166 1   
   166  163  172 1   
   167  164  165 2   
   168  164  177 1   
   169  166  167 1   
   170  166  173 1   
   171  166  174 1   
   172  167  168 1   
   173  167  175 1   
   174  167  176 1   
   175  168  169 1   
   176  168  170 1   
   177  177  178 1   
   178  177  182 1   
   179  178  179 1   
   180  178  180 1   
   181  178  181 1   
   182  184  185 1   
   183  184  186 1   
   184  187  188 1   
   185  187  189 1   
@<TRIPOS>SUBSTRUCTURE
     1 MOL         1 TEMP              0 ****  ****    0 ROOT
