@<TRIPOS>MOLECULE
MOL
  175   173     1     0     0
SMALL
resp


@<TRIPOS>ATOM
      1 C1         -1.3520    3.7720    5.7250 c3        1 MOL     -0.319539
      2 C2         -1.2860    3.1420    4.3870 c         1 MOL      0.809450
      3 O1         -0.2120    3.2110    3.7730 o         1 MOL     -0.585176
      4 H1         -1.5260    4.8420    5.6140 hc        1 MOL      0.068171
      5 H2         -2.1680    3.3280    6.2950 hc        1 MOL      0.068171
      6 H3         -0.4110    3.6090    6.2500 hc        1 MOL      0.068171
      7 N1         -2.4270    2.4990    3.9800 n         1 MOL     -0.756033
      8 C3         -2.7430    2.2340    2.5550 c3        1 MOL      0.420232
      9 C4         -2.9950    3.5650    1.8070 c         1 MOL      0.440779
     10 O2         -3.7510    4.4520    2.3060 o         1 MOL     -0.595625
     11 C5         -3.8870    1.2560    2.4400 c3        1 MOL     -0.158049
     12 C6         -4.3460    0.9990    0.9390 c         1 MOL      0.588670
     13 O3         -5.5330    0.6950    0.7910 o         1 MOL     -0.602836
     14 O4         -3.5940    1.0830   -0.0430 o         1 MOL     -0.602836
     15 H4         -3.1970    2.4240    4.6290 hn        1 MOL      0.354078
     16 H5         -1.8540    1.7500    2.1440 h1        1 MOL     -0.187476
     17 H6         -4.6880    1.6320    3.0730 hc        1 MOL      0.016169
     18 H7         -3.5220    0.3170    2.8630 hc        1 MOL      0.016169
     19 N2         -2.3270    3.7500    0.6430 n         1 MOL     -0.261184
     20 C7         -2.3030    4.9530   -0.1710 c3        1 MOL      0.248771
     21 C8         -3.2630    4.9820   -1.3970 c         1 MOL      0.459084
     22 O5         -3.2020    5.9040   -2.2150 o         1 MOL     -0.538536
     23 C9         -0.8270    5.2430   -0.5150 c3        1 MOL     -0.309933
     24 H8         -1.6200    3.0630    0.4290 hn        1 MOL      0.217738
     25 H9         -2.6350    5.8110    0.4230 h1        1 MOL     -0.000819
     26 H10        -0.7830    6.1310   -1.1450 hc        1 MOL      0.090115
     27 H11        -0.3380    5.4500    0.4430 hc        1 MOL      0.090115
     28 H12        -0.4360    4.3610   -1.0160 hc        1 MOL      0.090115
     29 N3         -4.0150    3.9010   -1.6730 n         1 MOL     -0.514137
     30 C10        -4.7120    3.5700   -2.9320 c3        1 MOL      0.093507
     31 C11        -6.0180    2.6900   -2.7560 c         1 MOL      0.372420
     32 O6         -6.5520    2.2320   -3.7640 o         1 MOL     -0.506003
     33 C12        -3.7030    2.8820   -3.9260 c3        1 MOL      0.004090
     34 C13        -2.8800    1.8550   -3.3210 c         1 MOL      0.643263
     35 O7         -1.8670    2.2150   -2.6430 o         1 MOL     -0.706079
     36 O8         -3.3290    0.6840   -3.2730 o         1 MOL     -0.706079
     37 H13        -3.9440    3.1170   -1.0390 hn        1 MOL      0.230880
     38 H14        -5.0110    4.4910   -3.4470 h1        1 MOL      0.089154
     39 H15        -3.0630    3.6580   -4.3480 hc        1 MOL     -0.000307
     40 H16        -4.2780    2.5490   -4.7900 hc        1 MOL     -0.000307
     41 N4         -6.5210    2.4150   -1.5580 n         1 MOL     -0.229766
     42 C14        -7.8380    1.8090   -1.3310 c3        1 MOL     -0.350543
     43 C15        -8.0140    0.3690   -1.7710 c         1 MOL      0.609738
     44 O9         -9.1180   -0.0070   -2.0230 o         1 MOL     -0.591465
     45 H17        -5.8980    2.6480   -0.8000 hn        1 MOL      0.240863
     46 H18        -8.4750    2.4090   -1.9820 h1        1 MOL      0.148225
     47 H19        -8.0670    1.9680   -0.2760 h1        1 MOL      0.148225
     48 N5         -6.9650   -0.4130   -1.7400 n         1 MOL     -0.229889
     49 C16        -6.9060   -1.8920   -1.9370 c3        1 MOL     -0.169664
     50 C17        -6.8560   -2.6560   -0.6170 c         1 MOL      0.479866
     51 O10        -6.9580   -3.8890   -0.6520 o         1 MOL     -0.554760
     52 C18        -5.7250   -2.1360   -2.9130 c3        1 MOL      0.011162
     53 C19        -4.4800   -2.4980   -2.1950 c         1 MOL      0.528636
     54 N6         -4.2010   -3.7720   -2.1070 n         1 MOL     -0.755036
     55 O11        -3.7860   -1.6260   -1.6940 o         1 MOL     -0.580852
     56 H20        -6.0780   -0.0070   -1.4680 hn        1 MOL      0.239766
     57 H21        -7.8340   -2.1790   -2.4410 h1        1 MOL      0.132176
     58 H22        -5.5560   -1.2840   -3.5650 hc        1 MOL      0.039158
     59 H23        -5.9500   -2.9140   -3.6600 hc        1 MOL      0.039158
     60 H24        -4.8940   -4.4520   -2.3920 hn        1 MOL      0.353527
     61 H25        -3.4210   -4.0130   -1.5090 hn        1 MOL      0.353527
     62 N7         -6.6940   -1.9420    0.5220 n         1 MOL     -0.190294
     63 C20        -6.7390   -2.6150    1.8860 c3        1 MOL     -0.160710
     64 C21        -5.4780   -3.3620    2.2220 c         1 MOL      0.531847
     65 O12        -5.4390   -4.2400    3.1210 o         1 MOL     -0.592911
     66 H26        -6.5290   -0.9470    0.4540 hn        1 MOL      0.174828
     67 H27        -7.4470   -3.4410    1.7730 h1        1 MOL      0.106299
     68 H28        -7.0500   -2.0280    2.7430 h1        1 MOL      0.106299
     69 N8         -4.3720   -3.1650    1.5140 n         1 MOL     -0.153268
     70 C22        -2.9960   -3.6870    1.8590 c3        1 MOL     -0.014050
     71 C23        -1.8780   -2.6570    1.6100 c         1 MOL      0.273097
     72 O13        -2.1210   -1.6710    0.8560 o         1 MOL     -0.351199
     73 C24        -2.5520   -4.9460    1.1710 c3        1 MOL      0.256757
     74 C25        -3.4790   -6.1890    1.3530 c3        1 MOL     -0.377925
     75 O14        -2.3250   -4.7120   -0.1660 oh        1 MOL     -0.566363
     76 H29        -4.3680   -2.5080    0.7490 hn        1 MOL      0.136935
     77 H30        -3.0180   -3.7910    2.9380 h1        1 MOL      0.087233
     78 H31        -1.5690   -5.1210    1.6050 h1        1 MOL      0.036001
     79 H32        -2.3000   -5.5690   -0.6000 ho        1 MOL      0.397059
     80 H33        -3.7940   -6.2140    2.3920 hc        1 MOL      0.106192
     81 H34        -4.3680   -6.0350    0.7400 hc        1 MOL      0.106192
     82 H35        -2.9460   -7.1080    1.1320 hc        1 MOL      0.106192
     83 N9         -0.6120   -2.8470    2.1130 n         1 MOL     -0.133570
     84 C26         0.5570   -1.9290    1.9400 c3        1 MOL     -0.394618
     85 C27         1.7270   -2.6200    1.1190 c         1 MOL      0.505790
     86 O15         2.0600   -3.7850    1.3040 o         1 MOL     -0.558064
     87 C28         1.0690   -1.3290    3.2930 c3        1 MOL      0.390689
     88 C29         1.2320   -2.3840    4.3500 c3        1 MOL     -0.023311
     89 C30         0.0110   -0.3460    3.8550 c3        1 MOL     -0.165048
     90 C31         1.7940   -1.8800    5.7280 c3        1 MOL     -0.219778
     91 H36        -0.4530   -3.6560    2.6800 hn        1 MOL      0.190701
     92 H37         0.3390   -1.0280    1.3690 h1        1 MOL     -0.064896
     93 H38         2.0120   -0.7860    3.1910 hc        1 MOL     -0.123528
     94 H39         1.9220   -3.1410    3.9590 hc        1 MOL      0.010983
     95 H40         0.2660   -2.8260    4.5640 hc        1 MOL      0.010983
     96 H41         0.4840    0.5180    4.3160 hc        1 MOL      0.053574
     97 H42        -0.5340    0.1030    3.0300 hc        1 MOL      0.053574
     98 H43        -0.7500   -0.7290    4.5360 hc        1 MOL      0.053574
     99 H44         2.6210   -1.1830    5.5800 hc        1 MOL      0.045330
    100 H45         1.0380   -1.2960    6.2620 hc        1 MOL      0.045330
    101 H46         2.1030   -2.7970    6.2220 hc        1 MOL      0.045330
    102 N10         2.2620   -1.8410    0.1980 n         1 MOL     -0.127812
    103 C32         3.3810   -2.2550   -0.6880 c3        1 MOL     -0.262755
    104 C33         4.6820   -1.7940    0.0430 c         1 MOL      0.599449
    105 O16         4.6020   -1.0850    1.0140 o         1 MOL     -0.490497
    106 C34         3.1020   -1.6890   -2.0980 c3        1 MOL      0.107777
    107 C35         4.0200   -2.2570   -3.2330 c         1 MOL      0.527752
    108 O17         3.7560   -1.7460   -4.3380 o         1 MOL     -0.643500
    109 O18         4.9260   -3.1800   -3.0770 o         1 MOL     -0.643500
    110 H47         1.9110   -0.9310   -0.0640 hn        1 MOL      0.325015
    111 H48         3.4700   -3.3410   -0.7150 h1        1 MOL      0.093019
    112 H49         3.2670   -0.6120   -2.1280 hc        1 MOL     -0.024708
    113 H50         2.0490   -1.8810   -2.2870 hc        1 MOL     -0.024708
    114 N11         5.8420   -2.0850   -0.6010 n         1 MOL     -0.478100
    115 C36         7.1290   -1.7740   -0.1460 c3        1 MOL      0.340919
    116 C37         7.2850   -0.2620    0.1820 c         1 MOL      0.222392
    117 O19         7.6660    0.0270    1.3300 o         1 MOL     -0.555929
    118 C38         8.3050   -2.3330   -1.0250 c3        1 MOL     -0.236810
    119 C39         8.9690   -1.3890   -2.0200 ca        1 MOL      0.143117
    120 C40         9.5910   -0.1690   -1.7050 ca        1 MOL     -0.142966
    121 C41         8.9930   -1.7690   -3.3620 ca        1 MOL     -0.142966
    122 C42        10.1610    0.6780   -2.6670 ca        1 MOL     -0.176541
    123 C43         9.5790   -0.9680   -4.3660 ca        1 MOL     -0.176541
    124 C44        10.0560    0.2950   -4.0350 ca        1 MOL     -0.094306
    125 H51         5.7790   -2.5560   -1.4840 hn        1 MOL      0.197744
    126 H52         7.1810   -2.2180    0.8430 h1        1 MOL      0.015173
    127 H53         7.9500   -3.2750   -1.4340 hc        1 MOL      0.072251
    128 H54         9.1190   -2.6010   -0.3510 hc        1 MOL      0.072251
    129 H55         9.5530    0.2300   -0.6970 ha        1 MOL      0.118974
    130 H56         8.5880   -2.7340   -3.6070 ha        1 MOL      0.118974
    131 H57        10.5750    1.6150   -2.3510 ha        1 MOL      0.131510
    132 H58         9.5430   -1.2500   -5.4050 ha        1 MOL      0.131510
    133 H59        10.3730    0.9430   -4.8390 ha        1 MOL      0.096267
    134 N12         6.7010    0.7080   -0.5670 n         1 MOL      0.109976
    135 C45         6.8080    2.1000   -0.1430 c3        1 MOL      0.004453
    136 C46         5.8860    2.5540    0.9480 c         1 MOL      0.320091
    137 O20         6.2340    3.4070    1.7590 o         1 MOL     -0.514912
    138 C47         6.6800    2.8950   -1.4800 c3        1 MOL     -0.049323
    139 C48         6.3280    1.8880   -2.5580 c3        1 MOL     -0.274410
    140 C49         6.0390    0.5860   -1.7910 c3        1 MOL     -0.060311
    141 H60         7.8050    2.4580    0.1210 h1        1 MOL      0.060878
    142 H61         5.9380    3.6920   -1.3760 hc        1 MOL      0.042348
    143 H62         7.6520    3.3810   -1.5840 hc        1 MOL      0.042348
    144 H63         5.4060    2.2010   -3.0710 hc        1 MOL      0.097273
    145 H64         7.1190    1.7240   -3.2910 hc        1 MOL      0.097273
    146 H65         4.9760    0.4120   -1.6230 h1        1 MOL      0.101770
    147 H66         6.3530   -0.2470   -2.4230 h1        1 MOL      0.101770
    148 N13         4.6930    1.9600    1.0890 n         1 MOL     -0.126959
    149 C50         3.7570    2.2570    2.1900 c3        1 MOL     -0.275571
    150 C51         4.2160    1.5290    3.4610 c         1 MOL      0.517125
    151 O21         3.9660    2.0110    4.5660 o         1 MOL     -0.578215
    152 C52         2.3900    1.6630    1.8240 c3        1 MOL      0.450009
    153 C53         1.7740    2.2400    0.5590 c3        1 MOL     -0.234119
    154 C54         0.6680    1.4100    0.0120 c         1 MOL      0.760139
    155 O22         0.8840    0.5450   -0.8550 o         1 MOL     -0.703194
    156 O23        -0.5100    1.5340    0.4020 o         1 MOL     -0.703194
    157 H67         4.3940    1.2500    0.4450 hn        1 MOL      0.174931
    158 H68         3.5280    3.2900    2.4500 h1        1 MOL      0.136274
    159 H69         1.7110    1.8140    2.6690 hc        1 MOL     -0.035696
    160 H70         2.6020    0.6050    1.6600 hc        1 MOL     -0.035696
    161 H71         2.5110    2.2540   -0.2540 hc        1 MOL      0.004259
    162 H72         1.4170    3.2240    0.8560 hc        1 MOL      0.004259
    163 N14         5.0160    0.4430    3.3600 n         1 MOL     -0.054518
    164 C55         5.6270   -0.2610    4.4800 c3        1 MOL     -0.315394
    165 H73         5.6730   -1.3270    4.2560 h1        1 MOL      0.105397
    166 H74         6.6360    0.1190    4.6420 h1        1 MOL      0.105397
    167 H75         5.0300   -0.1040    5.3780 h1        1 MOL      0.105397
    168 H76         5.1530    0.0650    2.4250 hn        1 MOL      0.162688
    169 Ca1        -1.7260    0.0550   -1.2880 Ca        1 MOL      1.692435
    170 O24        -0.5870   -0.3500   -3.7360 oh        1 MOL     -0.791471
    171 H77         0.0910   -0.9140   -4.1230 ho        1 MOL      0.380962
    172 H78        -1.3950   -0.6230   -4.1610 ho        1 MOL      0.380962
    173 O25        -0.5590   -2.5010   -1.7570 oh        1 MOL     -0.791471
    174 H79        -0.8130   -3.3850   -1.4640 ho        1 MOL      0.380962
    175 H80         0.1600   -2.6510   -2.3650 ho        1 MOL      0.380962
@<TRIPOS>BOND
     1    1    2 1   
     2    1    4 1   
     3    1    5 1   
     4    1    6 1   
     5    2    3 2   
     6    2    7 1   
     7    7    8 1   
     8    7   15 1   
     9    8    9 1   
    10    8   11 1   
    11    8   16 1   
    12    9   10 2   
    13    9   19 1   
    14   11   12 1   
    15   11   17 1   
    16   11   18 1   
    17   12   13 1   
    18   12   14 1   
    19   19   20 1   
    20   19   24 1   
    21   20   21 1   
    22   20   23 1   
    23   20   25 1   
    24   21   22 2   
    25   21   29 1   
    26   23   26 1   
    27   23   27 1   
    28   23   28 1   
    29   29   30 1   
    30   29   37 1   
    31   30   31 1   
    32   30   33 1   
    33   30   38 1   
    34   31   32 2   
    35   31   41 1   
    36   33   34 1   
    37   33   39 1   
    38   33   40 1   
    39   34   35 1   
    40   34   36 1   
    41   41   42 1   
    42   41   45 1   
    43   42   43 1   
    44   42   46 1   
    45   42   47 1   
    46   43   44 2   
    47   43   48 1   
    48   48   49 1   
    49   48   56 1   
    50   49   50 1   
    51   49   52 1   
    52   49   57 1   
    53   50   51 2   
    54   50   62 1   
    55   52   53 1   
    56   52   58 1   
    57   52   59 1   
    58   53   54 1   
    59   53   55 2   
    60   54   60 1   
    61   54   61 1   
    62   62   63 1   
    63   62   66 1   
    64   63   64 1   
    65   63   67 1   
    66   63   68 1   
    67   64   65 2   
    68   64   69 1   
    69   69   70 1   
    70   69   76 1   
    71   70   71 1   
    72   70   73 1   
    73   70   77 1   
    74   71   72 2   
    75   71   83 1   
    76   73   74 1   
    77   73   75 1   
    78   73   78 1   
    79   74   80 1   
    80   74   81 1   
    81   74   82 1   
    82   75   79 1   
    83   83   84 1   
    84   83   91 1   
    85   84   85 1   
    86   84   87 1   
    87   84   92 1   
    88   85   86 2   
    89   85  102 1   
    90   87   88 1   
    91   87   89 1   
    92   87   93 1   
    93   88   90 1   
    94   88   94 1   
    95   88   95 1   
    96   89   96 1   
    97   89   97 1   
    98   89   98 1   
    99   90   99 1   
   100   90  100 1   
   101   90  101 1   
   102  102  103 1   
   103  102  110 1   
   104  103  104 1   
   105  103  106 1   
   106  103  111 1   
   107  104  105 2   
   108  104  114 1   
   109  106  107 1   
   110  106  112 1   
   111  106  113 1   
   112  107  108 1   
   113  107  109 1   
   114  114  115 1   
   115  114  125 1   
   116  115  116 1   
   117  115  118 1   
   118  115  126 1   
   119  116  117 2   
   120  116  134 1   
   121  118  119 1   
   122  118  127 1   
   123  118  128 1   
   124  119  120 ar  
   125  119  121 ar  
   126  120  122 ar  
   127  120  129 1   
   128  121  123 ar  
   129  121  130 1   
   130  122  124 ar  
   131  122  131 1   
   132  123  124 ar  
   133  123  132 1   
   134  124  133 1   
   135  134  135 1   
   136  134  140 1   
   137  135  136 1   
   138  135  138 1   
   139  135  141 1   
   140  136  137 2   
   141  136  148 1   
   142  138  139 1   
   143  138  142 1   
   144  138  143 1   
   145  139  140 1   
   146  139  144 1   
   147  139  145 1   
   148  140  146 1   
   149  140  147 1   
   150  148  149 1   
   151  148  157 1   
   152  149  150 1   
   153  149  152 1   
   154  149  158 1   
   155  150  151 2   
   156  150  163 1   
   157  152  153 1   
   158  152  159 1   
   159  152  160 1   
   160  153  154 1   
   161  153  161 1   
   162  153  162 1   
   163  154  155 1   
   164  154  156 1   
   165  163  164 1   
   166  163  168 1   
   167  164  165 1   
   168  164  166 1   
   169  164  167 1   
   170  170  171 1   
   171  170  172 1   
   172  173  174 1   
   173  173  175 1   
@<TRIPOS>SUBSTRUCTURE
     1 MOL         1 TEMP              0 ****  ****    0 ROOT
