@<TRIPOS>MOLECULE
MOL
  189   185     1     0     0
SMALL
resp


@<TRIPOS>ATOM
      1 C1          0.6230    1.5200    5.8980 c3        1 MOL     -0.389478
      2 C2          0.0920    1.7030    4.4700 c         1 MOL      0.756757
      3 O1          0.7870    2.2250    3.6070 o         1 MOL     -0.683612
      4 H1          1.6270    1.0950    5.8590 hc        1 MOL      0.099800
      5 H2          0.6570    2.4860    6.3990 hc        1 MOL      0.099800
      6 H3         -0.0340    0.8470    6.4480 hc        1 MOL      0.099800
      7 N1         -1.1580    1.3600    4.2380 n         1 MOL     -0.576625
      8 C3         -1.8290    1.3560    2.9580 c3        1 MOL      0.090578
      9 C4         -2.2130    2.7550    2.3900 c         1 MOL      0.467850
     10 O2         -2.9570    3.4770    3.0500 o         1 MOL     -0.571021
     11 C5         -2.9810    0.3980    3.0380 c3        1 MOL     -0.051334
     12 C6         -3.7790    0.1980    1.6980 c         1 MOL      0.646481
     13 O3         -4.9340   -0.3110    1.7450 o         1 MOL     -0.671872
     14 O4         -3.3030    0.6010    0.6230 o         1 MOL     -0.671872
     15 H4         -1.6510    0.8610    4.9720 hn        1 MOL      0.315351
     16 H5         -1.0650    1.0070    2.2630 h1        1 MOL      0.006067
     17 H6         -3.7290    0.7220    3.7660 hc        1 MOL      0.029698
     18 H7         -2.7180   -0.5550    3.4960 hc        1 MOL      0.029698
     19 N2         -1.6560    3.1960    1.2380 n         1 MOL     -0.043642
     20 C7         -1.6150    4.6760    0.8220 c3        1 MOL     -0.061364
     21 C8         -2.6690    4.9830   -0.2340 c         1 MOL      0.540266
     22 O5         -2.8360    6.1590   -0.5910 o         1 MOL     -0.565796
     23 C9         -0.1580    5.0110    0.4230 c3        1 MOL     -0.037643
     24 C10         0.8230    5.4010    1.5240 c3        1 MOL      0.071591
     25 C11         0.3470    6.7250    2.2800 c3        1 MOL     -0.203348
     26 C12         1.2260    7.1270    3.5430 c3        1 MOL     -0.045940
     27 N3          1.4030    5.9800    4.4950 n4        1 MOL     -0.209080
     28 H8         -1.0500    2.5450    0.7430 hn        1 MOL      0.122410
     29 H9         -1.8150    5.3040    1.6900 h1        1 MOL      0.023490
     30 H10        -0.1880    5.8690   -0.2480 hc        1 MOL      0.017589
     31 H11         0.3790    4.1870   -0.0450 hc        1 MOL      0.017589
     32 H12         1.8310    5.5770    1.1670 hc        1 MOL      0.019853
     33 H13         0.8320    4.5330    2.1920 hc        1 MOL      0.019853
     34 H14        -0.6730    6.5400    2.6170 hc        1 MOL      0.114976
     35 H15         0.3720    7.5470    1.5590 hc        1 MOL      0.114976
     36 H16         0.6770    7.9560    3.9910 hx        1 MOL      0.091956
     37 H17         2.2510    7.4290    3.3010 hx        1 MOL      0.091956
     38 H18         1.7790    6.3070    5.3740 hn        1 MOL      0.293320
     39 H19         0.5030    5.6310    4.7800 hn        1 MOL      0.293320
     40 H20         1.8760    5.1780    4.1180 hn        1 MOL      0.293320
     41 N4         -3.3280    3.9350   -0.7470 n         1 MOL     -0.427355
     42 C13        -4.3700    4.1090   -1.7790 c3        1 MOL      0.145215
     43 C14        -5.6070    3.3390   -1.3960 c         1 MOL      0.365852
     44 O6         -6.5880    3.3570   -2.0990 o         1 MOL     -0.518602
     45 C15        -3.8730    3.7010   -3.2050 c3        1 MOL     -0.251602
     46 C16        -3.3120    2.3500   -3.4510 c         1 MOL      0.803210
     47 O7         -3.3810    1.4110   -2.5870 o         1 MOL     -0.691953
     48 O8         -2.8480    2.1290   -4.5860 o         1 MOL     -0.691953
     49 H21        -2.9940    2.9990   -0.5520 hn        1 MOL      0.266933
     50 H22        -4.6110    5.1820   -1.7960 h1        1 MOL      0.081069
     51 H23        -3.0560    4.3970   -3.3900 hc        1 MOL      0.056712
     52 H24        -4.6890    3.9260   -3.8930 hc        1 MOL      0.056712
     53 N5         -5.6690    2.8230   -0.2000 n         1 MOL     -0.239902
     54 C17        -6.8780    2.1650    0.2580 c3        1 MOL     -0.040354
     55 C18        -7.3750    0.8910   -0.4990 c         1 MOL      0.449070
     56 O9         -8.5580    0.5800   -0.3260 o         1 MOL     -0.579957
     57 H25        -4.8310    2.9680    0.3480 hn        1 MOL      0.173076
     58 H26        -7.6620    2.9120    0.3300 h1        1 MOL      0.076134
     59 H27        -6.6950    1.9210    1.3090 h1        1 MOL      0.076134
     60 N6         -6.5380    0.1160   -1.1980 n         1 MOL     -0.071643
     61 C19        -6.9610   -1.0210   -1.9690 c3        1 MOL     -0.128652
     62 C20        -6.9360   -2.3100   -1.0780 c         1 MOL      0.442851
     63 O10        -7.2550   -3.4130   -1.5750 o         1 MOL     -0.544273
     64 C21        -6.1890   -1.1900   -3.2940 c3        1 MOL     -0.169244
     65 C22        -4.6750   -1.4990   -3.1340 c         1 MOL      0.675498
     66 O11        -4.2070   -1.7960   -1.9720 o         1 MOL     -0.632817
     67 O12        -3.9540   -1.5620   -4.1630 o         1 MOL     -0.632817
     68 H28        -5.5660    0.3960   -1.1640 hn        1 MOL      0.083994
     69 H29        -7.9740   -0.8500   -2.3360 h1        1 MOL      0.131315
     70 H30        -6.2680   -0.2420   -3.8240 hc        1 MOL      0.074963
     71 H31        -6.7190   -1.9170   -3.9050 hc        1 MOL      0.074963
     72 N7         -6.5860   -2.1630    0.2160 n         1 MOL     -0.216751
     73 C23        -6.5780   -3.3260    1.1280 c3        1 MOL     -0.259407
     74 C24        -5.2870   -4.1240    1.1930 c         1 MOL      0.583829
     75 O13        -5.3680   -5.1470    1.8760 o         1 MOL     -0.593007
     76 H32        -6.0700   -1.3600    0.5470 hn        1 MOL      0.240572
     77 H33        -7.3740   -3.9960    0.8020 h1        1 MOL      0.129504
     78 H34        -6.7400   -2.9470    2.1490 h1        1 MOL      0.129504
     79 N8         -4.1740   -3.7540    0.5590 n         1 MOL     -0.229909
     80 C25        -2.8470   -4.4790    0.7720 c3        1 MOL     -0.071565
     81 C26        -1.7230   -3.5320    1.0200 c         1 MOL      0.669683
     82 O14        -1.8670   -2.3760    0.5940 o         1 MOL     -0.690165
     83 C27        -2.5430   -5.3650   -0.4640 c3        1 MOL      0.376621
     84 C28        -3.3730   -6.6350   -0.3120 c3        1 MOL     -0.436907
     85 O15        -2.6990   -4.8590   -1.7560 oh        1 MOL     -0.558599
     86 H35        -4.2640   -2.9670   -0.0720 hn        1 MOL      0.135081
     87 H36        -2.8900   -5.0780    1.6880 h1        1 MOL      0.061996
     88 H37        -1.5180   -5.7330   -0.3410 h1        1 MOL      0.026936
     89 H38        -3.6390   -4.9380   -1.9340 ho        1 MOL      0.404205
     90 H39        -3.3190   -7.0120    0.7050 hc        1 MOL      0.111424
     91 H40        -4.4360   -6.4310   -0.4710 hc        1 MOL      0.111424
     92 H41        -3.0010   -7.4420   -0.9480 hc        1 MOL      0.111424
     93 N9         -0.5880   -4.0110    1.5550 n         1 MOL     -0.490929
     94 C29         0.6130   -3.2120    1.7730 c3        1 MOL      0.029809
     95 C30         1.6680   -3.6790    0.7820 c         1 MOL      0.473408
     96 O16         2.0350   -4.8790    0.7420 o         1 MOL     -0.577214
     97 C31         1.1120   -3.1840    3.2530 c3        1 MOL      0.139250
     98 C32         0.0720   -2.9840    4.3320 c3        1 MOL      0.231769
     99 C33         2.2630   -2.2930    3.3720 c3        1 MOL     -0.278765
    100 C34         0.5240   -3.2770    5.7490 c3        1 MOL     -0.193009
    101 H42        -0.5400   -4.9230    1.9950 hn        1 MOL      0.272518
    102 H43         0.3410   -2.1910    1.5050 h1        1 MOL      0.097210
    103 H44         1.5460   -4.1700    3.4500 hc        1 MOL     -0.019360
    104 H45        -0.8120   -3.5770    4.1200 hc        1 MOL     -0.054852
    105 H46        -0.3150   -1.9740    4.2400 hc        1 MOL     -0.054852
    106 H47         3.0830   -2.4990    2.6750 hc        1 MOL      0.048244
    107 H48         1.9810   -1.2490    3.2540 hc        1 MOL      0.048244
    108 H49         2.6600   -2.3600    4.3830 hc        1 MOL      0.048244
    109 H50        -0.2760   -2.8850    6.3750 hc        1 MOL      0.039753
    110 H51         0.5840   -4.3580    5.8860 hc        1 MOL      0.039753
    111 H52         1.4140   -2.7720    6.1380 hc        1 MOL      0.039753
    112 N10         2.1350   -2.8440   -0.0910 n         1 MOL     -0.268679
    113 C35         3.2980   -2.9670   -1.0130 c3        1 MOL      0.076568
    114 C36         4.6860   -2.6470   -0.4040 c         1 MOL      0.260980
    115 O17         4.7420   -2.0170    0.6570 o         1 MOL     -0.277445
    116 C37         3.2730   -2.1790   -2.3190 c3        1 MOL      0.095712
    117 C38         1.9740   -2.3410   -3.1350 c3        1 MOL     -0.432389
    118 O18         3.6020   -0.8330   -2.1600 oh        1 MOL     -0.521681
    119 H53         1.6460   -1.9670   -0.0920 hn        1 MOL      0.328111
    120 H54         3.3490   -3.9820   -1.4040 h1        1 MOL      0.084564
    121 H55         4.0550   -2.5250   -2.9910 h1        1 MOL      0.050184
    122 H56         3.1770   -0.3560   -2.8750 ho        1 MOL      0.398122
    123 H57         1.7040   -3.3800   -3.3210 hc        1 MOL      0.137600
    124 H58         1.2060   -1.7750   -2.5960 hc        1 MOL      0.137600
    125 H59         2.0970   -1.8260   -4.0880 hc        1 MOL      0.137600
    126 N11         5.7940   -3.1480   -0.9660 n         1 MOL     -0.268748
    127 C39         7.2180   -2.8730   -0.6600 c3        1 MOL      0.045742
    128 C40         7.4620   -1.3670   -0.4860 c         1 MOL      0.381907
    129 O19         8.0420   -1.0100    0.5170 o         1 MOL     -0.468741
    130 C41         8.2170   -3.5250   -1.6160 c3        1 MOL      0.359806
    131 C42         9.5320   -3.9130   -0.9450 c3        1 MOL     -0.290385
    132 O20         7.7330   -4.6950   -2.2610 oh        1 MOL     -0.660540
    133 H60         5.7250   -3.7530   -1.7700 hn        1 MOL      0.231404
    134 H61         7.3870   -3.3350    0.3080 h1        1 MOL      0.070276
    135 H62         8.4770   -2.7580   -2.3420 h1        1 MOL     -0.038295
    136 H63         8.4640   -5.2600   -2.5130 ho        1 MOL      0.425578
    137 H64         9.4490   -4.7430   -0.2390 hc        1 MOL      0.080781
    138 H65        10.3120   -4.2100   -1.6390 hc        1 MOL      0.080781
    139 H66         9.8680   -3.0490   -0.3690 hc        1 MOL      0.080781
    140 N12         6.7950   -0.5470   -1.3380 n         1 MOL     -0.223830
    141 C43         6.8910    0.9430   -1.3100 c3        1 MOL     -0.240301
    142 C44         6.0730    1.5100   -0.1450 c         1 MOL      0.454614
    143 O21         6.5120    2.4800    0.4460 o         1 MOL     -0.537319
    144 C45         6.5450    1.4010   -2.7300 c3        1 MOL      0.023780
    145 C46         6.8100    2.8730   -2.9150 c3        1 MOL     -0.053187
    146 C47         6.3090    3.2900   -4.2600 c3        1 MOL      0.109861
    147 C48         6.4150    4.8390   -4.5320 c3        1 MOL      0.010714
    148 N13         5.7880    5.2200   -5.7950 n4        1 MOL     -0.271776
    149 H67         6.4870   -1.0630   -2.1490 hn        1 MOL      0.194817
    150 H68         7.9120    1.2210   -1.0160 h1        1 MOL      0.148813
    151 H69         5.4650    1.2350   -2.7550 hc        1 MOL      0.032255
    152 H70         6.9390    0.7440   -3.4960 hc        1 MOL      0.032255
    153 H71         7.8890    3.0220   -2.9870 hc        1 MOL      0.040562
    154 H72         6.3610    3.4660   -2.1290 hc        1 MOL      0.040562
    155 H73         5.2860    2.9110   -4.2850 hc        1 MOL     -0.026476
    156 H74         6.7510    2.7380   -5.0960 hc        1 MOL     -0.026476
    157 H75         7.4950    4.9960   -4.5680 hx        1 MOL      0.074717
    158 H76         6.0130    5.2840   -3.6290 hx        1 MOL      0.074717
    159 H77         4.9530    4.6510   -5.8290 hn        1 MOL      0.284427
    160 H78         5.5400    6.1990   -5.8460 hn        1 MOL      0.284427
    161 H79         6.4150    4.8800   -6.5190 hn        1 MOL      0.284427
    162 N14         4.9200    0.9640    0.1650 n         1 MOL     -0.024514
    163 C49         4.0190    1.3190    1.2970 c3        1 MOL     -0.255475
    164 C50         4.6530    0.9470    2.6120 c         1 MOL      0.504935
    165 O22         4.5670    1.7070    3.5870 o         1 MOL     -0.570549
    166 C51         2.6330    0.8500    1.0270 c3        1 MOL      0.111267
    167 C52         2.0030    1.4660   -0.2210 c3        1 MOL     -0.235752
    168 C53         0.5920    0.8890   -0.4420 c         1 MOL      0.730225
    169 O23         0.4000   -0.3470   -0.2900 o         1 MOL     -0.731972
    170 O24        -0.4080    1.5980   -0.7300 o         1 MOL     -0.731972
    171 H80         4.6980    0.1930   -0.4620 hn        1 MOL      0.083462
    172 H81         3.8180    2.3910    1.2830 h1        1 MOL      0.088555
    173 H82         2.0270    0.9820    1.9200 hc        1 MOL      0.076385
    174 H83         2.7210   -0.2350    1.1100 hc        1 MOL      0.076385
    175 H84         2.5810    1.3230   -1.1330 hc        1 MOL      0.040505
    176 H85         1.9580    2.5290    0.0100 hc        1 MOL      0.040505
    177 N15         5.2650   -0.2600    2.7200 n         1 MOL     -0.092958
    178 C54         6.0540   -0.7500    3.8660 c3        1 MOL     -0.274460
    179 H86         6.9670   -1.2220    3.5030 h1        1 MOL      0.105790
    180 H87         6.3130    0.0870    4.5140 h1        1 MOL      0.105790
    181 H88         5.4690   -1.4780    4.4270 h1        1 MOL      0.105790
    182 H89         5.0960   -0.8920    1.9450 hn        1 MOL      0.112014
    183 Ca1        -2.1090   -0.5040   -1.3210 Ca        1 MOL      1.720818
    184 O25        -0.9670    0.3160   -3.5850 oh        1 MOL     -0.904749
    185 H90        -1.5360    1.0030   -3.9380 ho        1 MOL      0.400697
    186 H91        -0.3160    0.1590   -4.2700 ho        1 MOL      0.400697
    187 O26        -1.1650   -2.8030   -2.2400 oh        1 MOL     -0.904749
    188 H92        -1.7320   -3.5620   -2.1710 ho        1 MOL      0.400697
    189 H93        -0.8110   -2.8400   -3.1360 ho        1 MOL      0.400697
@<TRIPOS>BOND
     1    1    2 1   
     2    1    4 1   
     3    1    5 1   
     4    1    6 1   
     5    2    3 2   
     6    2    7 1   
     7    7    8 1   
     8    7   15 1   
     9    8    9 1   
    10    8   11 1   
    11    8   16 1   
    12    9   10 2   
    13    9   19 1   
    14   11   12 1   
    15   11   17 1   
    16   11   18 1   
    17   12   13 1   
    18   12   14 1   
    19   19   20 1   
    20   19   28 1   
    21   20   21 1   
    22   20   23 1   
    23   20   29 1   
    24   21   22 2   
    25   21   41 1   
    26   23   24 1   
    27   23   30 1   
    28   23   31 1   
    29   24   25 1   
    30   24   32 1   
    31   24   33 1   
    32   25   26 1   
    33   25   34 1   
    34   25   35 1   
    35   26   27 1   
    36   26   36 1   
    37   26   37 1   
    38   27   38 1   
    39   27   39 1   
    40   27   40 1   
    41   41   42 1   
    42   41   49 1   
    43   42   43 1   
    44   42   45 1   
    45   42   50 1   
    46   43   44 2   
    47   43   53 1   
    48   45   46 1   
    49   45   51 1   
    50   45   52 1   
    51   46   47 1   
    52   46   48 1   
    53   53   54 1   
    54   53   57 1   
    55   54   55 1   
    56   54   58 1   
    57   54   59 1   
    58   55   56 2   
    59   55   60 1   
    60   60   61 1   
    61   60   68 1   
    62   61   62 1   
    63   61   64 1   
    64   61   69 1   
    65   62   63 2   
    66   62   72 1   
    67   64   65 1   
    68   64   70 1   
    69   64   71 1   
    70   65   66 1   
    71   65   67 1   
    72   72   73 1   
    73   72   76 1   
    74   73   74 1   
    75   73   77 1   
    76   73   78 1   
    77   74   75 2   
    78   74   79 1   
    79   79   80 1   
    80   79   86 1   
    81   80   81 1   
    82   80   83 1   
    83   80   87 1   
    84   81   82 2   
    85   81   93 1   
    86   83   84 1   
    87   83   85 1   
    88   83   88 1   
    89   84   90 1   
    90   84   91 1   
    91   84   92 1   
    92   85   89 1   
    93   93   94 1   
    94   93  101 1   
    95   94   95 1   
    96   94   97 1   
    97   94  102 1   
    98   95   96 2   
    99   95  112 1   
   100   97   98 1   
   101   97   99 1   
   102   97  103 1   
   103   98  100 1   
   104   98  104 1   
   105   98  105 1   
   106   99  106 1   
   107   99  107 1   
   108   99  108 1   
   109  100  109 1   
   110  100  110 1   
   111  100  111 1   
   112  112  113 1   
   113  112  119 1   
   114  113  114 1   
   115  113  116 1   
   116  113  120 1   
   117  114  115 2   
   118  114  126 1   
   119  116  117 1   
   120  116  118 1   
   121  116  121 1   
   122  117  123 1   
   123  117  124 1   
   124  117  125 1   
   125  118  122 1   
   126  126  127 1   
   127  126  133 1   
   128  127  128 1   
   129  127  130 1   
   130  127  134 1   
   131  128  129 2   
   132  128  140 1   
   133  130  131 1   
   134  130  132 1   
   135  130  135 1   
   136  131  137 1   
   137  131  138 1   
   138  131  139 1   
   139  132  136 1   
   140  140  141 1   
   141  140  149 1   
   142  141  142 1   
   143  141  144 1   
   144  141  150 1   
   145  142  143 2   
   146  142  162 1   
   147  144  145 1   
   148  144  151 1   
   149  144  152 1   
   150  145  146 1   
   151  145  153 1   
   152  145  154 1   
   153  146  147 1   
   154  146  155 1   
   155  146  156 1   
   156  147  148 1   
   157  147  157 1   
   158  147  158 1   
   159  148  159 1   
   160  148  160 1   
   161  148  161 1   
   162  162  163 1   
   163  162  171 1   
   164  163  164 1   
   165  163  166 1   
   166  163  172 1   
   167  164  165 2   
   168  164  177 1   
   169  166  167 1   
   170  166  173 1   
   171  166  174 1   
   172  167  168 1   
   173  167  175 1   
   174  167  176 1   
   175  168  169 1   
   176  168  170 1   
   177  177  178 1   
   178  177  182 1   
   179  178  179 1   
   180  178  180 1   
   181  178  181 1   
   182  184  185 1   
   183  184  186 1   
   184  187  188 1   
   185  187  189 1   
@<TRIPOS>SUBSTRUCTURE
     1 MOL         1 TEMP              0 ****  ****    0 ROOT
