@<TRIPOS>MOLECULE
MOL
  175   173     1     0     0
SMALL
resp


@<TRIPOS>ATOM
      1 C1         -0.3960   -4.1450    5.0830 c3        1 MOL     -0.326874
      2 C2          0.2830   -4.0080    3.7150 c         1 MOL      0.708451
      3 O1         -0.3280   -4.1060    2.6390 o         1 MOL     -0.564579
      4 H1         -0.1820   -3.2620    5.6850 hc        1 MOL      0.078734
      5 H2         -1.4740   -4.2380    4.9460 hc        1 MOL      0.078734
      6 H3         -0.0170   -5.0320    5.5910 hc        1 MOL      0.078734
      7 N1          1.5820   -3.7610    3.7430 n         1 MOL     -0.664448
      8 C3          2.3870   -3.4610    2.6390 c3        1 MOL      0.383255
      9 C4          2.6370   -4.5900    1.5810 c         1 MOL      0.399649
     10 O2          3.2760   -5.6780    1.8890 o         1 MOL     -0.578373
     11 C5          3.7460   -2.8250    3.0180 c3        1 MOL     -0.469028
     12 C6          4.5650   -2.3140    1.8230 c         1 MOL      0.870038
     13 O3          3.9110   -1.9070    0.7990 o         1 MOL     -0.663783
     14 O4          5.7660   -2.3100    1.8830 o         1 MOL     -0.663783
     15 H4          2.0460   -3.8820    4.6290 hn        1 MOL      0.316484
     16 H5          1.7700   -2.6910    2.1780 h1        1 MOL     -0.016187
     17 H6          4.2790   -3.5630    3.6170 hc        1 MOL      0.078015
     18 H7          3.6650   -1.9200    3.6200 hc        1 MOL      0.078015
     19 N2          2.2080   -4.3190    0.3580 n         1 MOL     -0.323386
     20 C7          2.2810   -5.2350   -0.7340 c3        1 MOL      0.089616
     21 C8          3.3260   -4.7710   -1.8740 c         1 MOL      0.530713
     22 O5          3.4350   -5.4780   -2.8560 o         1 MOL     -0.563583
     23 C9          0.9000   -5.3650   -1.3810 c3        1 MOL     -0.039924
     24 H8          1.6260   -3.4950    0.2550 hn        1 MOL      0.328863
     25 H9          2.5340   -6.2410   -0.4170 h1        1 MOL      0.047132
     26 H10         0.5370   -4.4090   -1.7380 hc        1 MOL      0.004115
     27 H11         1.0230   -6.0180   -2.2460 hc        1 MOL      0.004115
     28 H12         0.1160   -5.8240   -0.7690 hc        1 MOL      0.004115
     29 N3          4.0430   -3.6340   -1.6910 n         1 MOL     -0.479165
     30 C10         4.9820   -3.1680   -2.7320 c3        1 MOL      0.180748
     31 C11         6.2580   -2.4090   -2.2810 c         1 MOL      0.268121
     32 O6          7.1400   -2.2450   -3.0860 o         1 MOL     -0.514860
     33 C12         4.3020   -2.2420   -3.7640 c3        1 MOL     -0.337530
     34 C13         3.5720   -1.0680   -3.1760 c         1 MOL      0.861940
     35 O7          3.4660   -0.9050   -1.9450 o         1 MOL     -0.757809
     36 O8          3.1130   -0.2030   -3.9900 o         1 MOL     -0.757809
     37 H13         3.8390   -2.9920   -0.9370 hn        1 MOL      0.248825
     38 H14         5.2870   -4.0500   -3.3020 h1        1 MOL      0.060650
     39 H15         3.5290   -2.8350   -4.2460 hc        1 MOL      0.087480
     40 H16         5.0490   -1.8630   -4.4620 hc        1 MOL      0.087480
     41 N4          6.2970   -1.8920   -1.0750 n         1 MOL      0.011752
     42 C14         7.4300   -1.0850   -0.6090 c3        1 MOL     -0.295943
     43 C15         7.4720    0.3320   -1.1830 c         1 MOL      0.463657
     44 O9          8.5690    0.8970   -1.2450 o         1 MOL     -0.574168
     45 H17         5.5310   -2.0270   -0.4300 hn        1 MOL      0.042143
     46 H18         8.3280   -1.6260   -0.9160 h1        1 MOL      0.131005
     47 H19         7.2730   -0.9900    0.4660 h1        1 MOL      0.131005
     48 N5          6.3090    0.9040   -1.5430 n         1 MOL     -0.129806
     49 C16         6.2420    2.3320   -2.0400 c3        1 MOL     -0.130538
     50 C17         6.2800    3.3900   -0.9530 c         1 MOL      0.507464
     51 O10         6.4570    4.5580   -1.3120 o         1 MOL     -0.522840
     52 C18         5.0040    2.4360   -2.9270 c3        1 MOL      0.045275
     53 C19         3.6300    2.4470   -2.2790 c         1 MOL      0.408831
     54 N6          2.6000    2.5930   -3.0850 n         1 MOL     -0.706825
     55 O11         3.4500    2.2020   -1.0870 o         1 MOL     -0.300535
     56 H20         5.4610    0.3850   -1.4090 hn        1 MOL      0.164402
     57 H21         7.0880    2.5450   -2.6980 h1        1 MOL      0.120249
     58 H22         5.0050    1.6430   -3.6760 hc        1 MOL      0.007557
     59 H23         5.1410    3.3800   -3.4650 hc        1 MOL      0.007557
     60 H24         2.7930    2.3590   -4.0410 hn        1 MOL      0.369908
     61 H25         1.6640    2.7750   -2.7390 hn        1 MOL      0.369908
     62 N7          6.0470    3.0490    0.3430 n         1 MOL     -0.396311
     63 C20         5.9230    4.1170    1.4460 c3        1 MOL     -0.152667
     64 C21         4.5040    4.7340    1.7010 c         1 MOL      0.494371
     65 O12         4.4160    5.7890    2.3550 o         1 MOL     -0.588041
     66 H26         5.6940    2.1200    0.5560 hn        1 MOL      0.258200
     67 H27         6.4760    4.9540    1.0210 h1        1 MOL      0.110104
     68 H28         6.4030    3.6950    2.3180 h1        1 MOL      0.110104
     69 N8          3.4220    4.1230    1.2350 n         1 MOL     -0.252798
     70 C22         2.0160    4.4800    1.4740 c3        1 MOL      0.032772
     71 C23         1.0570    3.3140    1.6700 c         1 MOL      0.207813
     72 O13         1.3110    2.2690    1.1180 o         1 MOL     -0.327588
     73 C24         1.4530    5.4660    0.4310 c3        1 MOL      0.497665
     74 C25         2.1120    6.7720    0.2130 c3        1 MOL     -0.593228
     75 O14         1.6140    4.9480   -0.8710 oh        1 MOL     -0.595500
     76 H29         3.6080    3.3760    0.5760 hn        1 MOL      0.165202
     77 H30         2.0410    5.0080    2.4180 h1        1 MOL      0.042898
     78 H31         0.4280    5.5340    0.7810 h1        1 MOL     -0.058895
     79 H32         1.1450    4.1120   -0.9150 ho        1 MOL      0.375095
     80 H33         3.1950    6.7490    0.2820 hc        1 MOL      0.152446
     81 H34         1.8900    7.1470   -0.7820 hc        1 MOL      0.152446
     82 H35         1.7470    7.4250    1.0140 hc        1 MOL      0.152446
     83 N9         -0.0560    3.4600    2.4050 n         1 MOL     -0.341285
     84 C26        -1.1980    2.4910    2.3170 c3        1 MOL      0.051784
     85 C27        -1.9280    2.8710    1.0530 c         1 MOL      0.442927
     86 O15        -2.4220    3.9680    0.7870 o         1 MOL     -0.556272
     87 C28        -2.0630    2.4990    3.6150 c3        1 MOL      0.011896
     88 C29        -1.2350    2.0120    4.8250 c3        1 MOL      0.081807
     89 C30        -3.3040    1.5420    3.3840 c3        1 MOL     -0.091658
     90 C31        -1.9780    1.8750    6.1930 c3        1 MOL     -0.143117
     91 H36        -0.2250    4.3760    2.7850 hn        1 MOL      0.264405
     92 H37        -0.7780    1.4890    2.2770 h1        1 MOL      0.018709
     93 H38        -2.4510    3.4990    3.7960 hc        1 MOL      0.011771
     94 H39        -0.3990    2.6980    4.8930 hc        1 MOL     -0.020660
     95 H40        -0.7580    1.0600    4.5830 hc        1 MOL     -0.020660
     96 H41        -3.9760    1.5680    4.2430 hc        1 MOL      0.028341
     97 H42        -3.9360    1.8200    2.5380 hc        1 MOL      0.028341
     98 H43        -2.9450    0.5320    3.2030 hc        1 MOL      0.028341
     99 H44        -2.5620    2.7690    6.4060 hc        1 MOL      0.030066
    100 H45        -2.7250    1.0820    6.1220 hc        1 MOL      0.030066
    101 H46        -1.2340    1.7680    6.9820 hc        1 MOL      0.030066
    102 N10        -2.0490    1.8120    0.2460 n         1 MOL     -0.169873
    103 C32        -2.7450    1.8390   -1.0790 c3        1 MOL      0.153156
    104 C33        -4.1980    1.2960   -0.9740 c         1 MOL      0.370919
    105 O16        -4.5430    0.7580    0.1200 o         1 MOL     -0.365277
    106 C34        -1.8000    1.2160   -2.1720 c3        1 MOL     -0.441416
    107 C35        -0.3650    1.7500   -1.9670 c         1 MOL      0.989240
    108 O17         0.5180    1.0040   -1.5330 o         1 MOL     -0.766300
    109 O18        -0.0860    2.9330   -2.2950 o         1 MOL     -0.766300
    110 H47        -1.6430    0.9140    0.4600 hn        1 MOL      0.102447
    111 H48        -2.8150    2.8990   -1.3460 h1        1 MOL      0.052700
    112 H49        -2.2550    1.3760   -3.1500 hc        1 MOL      0.100020
    113 H50        -1.8960    0.1510   -1.9480 hc        1 MOL      0.100020
    114 N11        -5.1190    1.5240   -1.9120 n         1 MOL     -0.562391
    115 C36        -6.5650    1.1220   -1.5940 c3        1 MOL      0.233734
    116 C37        -6.7130   -0.4210   -1.3050 c         1 MOL      0.249730
    117 O19        -7.3490   -0.7860   -0.2750 o         1 MOL     -0.496148
    118 C38        -7.4520    1.8450   -2.5680 c3        1 MOL      0.004384
    119 C39        -8.9350    1.9930   -2.2100 ca        1 MOL     -0.113815
    120 C40        -9.3250    2.9390   -1.3050 ca        1 MOL     -0.010039
    121 C41        -9.8090    0.9780   -2.6410 ca        1 MOL     -0.010039
    122 C42       -10.7500    3.0400   -1.0030 ca        1 MOL     -0.228211
    123 C43       -11.1890    1.0680   -2.4180 ca        1 MOL     -0.228211
    124 C44       -11.6500    2.0710   -1.5870 ca        1 MOL      0.004856
    125 H51        -4.7740    2.0040   -2.7330 hn        1 MOL      0.323348
    126 H52        -6.7090    1.5540   -0.5980 h1        1 MOL      0.082039
    127 H53        -7.4970    1.2490   -3.4790 hc        1 MOL      0.026335
    128 H54        -7.0080    2.7520   -2.9790 hc        1 MOL      0.026335
    129 H55        -8.5290    3.5560   -0.9230 ha        1 MOL      0.092021
    130 H56        -9.5160    0.1620   -3.2850 ha        1 MOL      0.092021
    131 H57       -11.0090    3.8470   -0.3380 ha        1 MOL      0.136409
    132 H58       -11.7880    0.2440   -2.7850 ha        1 MOL      0.136409
    133 H59       -12.7120    2.1880   -1.4410 ha        1 MOL      0.076097
    134 N12        -5.9990   -1.3610   -1.9650 n         1 MOL     -0.048707
    135 C45        -6.0020   -2.8280   -1.5670 c3        1 MOL      0.023786
    136 C46        -5.3750   -3.1850   -0.2260 c         1 MOL      0.227519
    137 O20        -5.5970   -4.3160    0.3100 o         1 MOL     -0.507010
    138 C47        -5.3620   -3.5820   -2.7790 c3        1 MOL     -0.022204
    139 C48        -5.5530   -2.6070   -3.9750 c3        1 MOL     -0.093685
    140 C49        -5.5220   -1.1510   -3.2800 c3        1 MOL      0.025565
    141 H60        -7.0680   -3.0800   -1.5820 h1        1 MOL      0.086704
    142 H61        -4.2860   -3.7070   -2.5750 hc        1 MOL      0.046194
    143 H62        -5.7880   -4.5770   -2.8940 hc        1 MOL      0.046194
    144 H63        -4.7970   -2.6310   -4.7530 hc        1 MOL      0.031877
    145 H64        -6.5450   -2.7630   -4.3940 hc        1 MOL      0.031877
    146 H65        -4.4910   -0.7970   -3.3020 h1        1 MOL      0.030608
    147 H66        -6.0080   -0.4900   -4.0040 h1        1 MOL      0.030608
    148 N13        -4.5890   -2.2860    0.3500 n         1 MOL      0.044501
    149 C50        -3.9040   -2.5020    1.5940 c3        1 MOL     -0.119933
    150 C51        -4.6450   -1.8590    2.7500 c         1 MOL      0.467664
    151 O21        -4.6340   -2.3600    3.8690 o         1 MOL     -0.545741
    152 C52        -2.5130   -1.9000    1.3950 c3        1 MOL     -0.028282
    153 C53        -1.5450   -2.4340    0.2470 c3        1 MOL     -0.136877
    154 C54        -0.2520   -1.6980    0.2000 c         1 MOL      0.517650
    155 O22         0.6660   -2.1120   -0.5850 o         1 MOL     -0.632003
    156 O23        -0.1140   -0.6580    0.9480 o         1 MOL     -0.632003
    157 H67        -4.4290   -1.3800   -0.0760 hn        1 MOL      0.060663
    158 H68        -3.8380   -3.5780    1.7720 h1        1 MOL      0.120587
    159 H69        -2.0230   -1.8480    2.3620 hc        1 MOL      0.054423
    160 H70        -2.6670   -0.8440    1.1870 hc        1 MOL      0.054423
    161 H71        -2.0610   -2.3140   -0.6990 hc        1 MOL      0.066033
    162 H72        -1.3500   -3.4870    0.4560 hc        1 MOL      0.066033
    163 N14        -5.4830   -0.8360    2.4620 n         1 MOL     -0.116625
    164 C55        -6.4920   -0.2770    3.3580 c3        1 MOL     -0.164009
    165 H73        -6.9960    0.5530    2.8630 h1        1 MOL      0.068760
    166 H74        -7.2220   -1.0460    3.6100 h1        1 MOL      0.068760
    167 H75        -6.0120    0.0820    4.2680 h1        1 MOL      0.068760
    168 H76        -5.2210   -0.2990    1.6470 hn        1 MOL      0.125377
    169 Ca1         2.2060   -0.0620    0.0130 Ca        1 MOL      1.583171
    170 O24         4.3420    0.8730    1.6120 oh        1 MOL     -0.801092
    171 H77         5.1540    0.4650    1.9070 ho        1 MOL      0.390741
    172 H78         3.9420    1.2180    2.4080 ho        1 MOL      0.390741
    173 O25         1.8780   -0.1110    2.8750 oh        1 MOL     -0.801092
    174 H79         2.1070   -0.6330    3.6570 ho        1 MOL      0.390741
    175 H80         0.9220   -0.0600    2.8970 ho        1 MOL      0.390741
@<TRIPOS>BOND
     1    1    2 1   
     2    1    4 1   
     3    1    5 1   
     4    1    6 1   
     5    2    3 2   
     6    2    7 1   
     7    7    8 1   
     8    7   15 1   
     9    8    9 1   
    10    8   11 1   
    11    8   16 1   
    12    9   10 2   
    13    9   19 1   
    14   11   12 1   
    15   11   17 1   
    16   11   18 1   
    17   12   13 1   
    18   12   14 1   
    19   19   20 1   
    20   19   24 1   
    21   20   21 1   
    22   20   23 1   
    23   20   25 1   
    24   21   22 2   
    25   21   29 1   
    26   23   26 1   
    27   23   27 1   
    28   23   28 1   
    29   29   30 1   
    30   29   37 1   
    31   30   31 1   
    32   30   33 1   
    33   30   38 1   
    34   31   32 2   
    35   31   41 1   
    36   33   34 1   
    37   33   39 1   
    38   33   40 1   
    39   34   35 1   
    40   34   36 1   
    41   41   42 1   
    42   41   45 1   
    43   42   43 1   
    44   42   46 1   
    45   42   47 1   
    46   43   44 2   
    47   43   48 1   
    48   48   49 1   
    49   48   56 1   
    50   49   50 1   
    51   49   52 1   
    52   49   57 1   
    53   50   51 2   
    54   50   62 1   
    55   52   53 1   
    56   52   58 1   
    57   52   59 1   
    58   53   54 1   
    59   53   55 2   
    60   54   60 1   
    61   54   61 1   
    62   62   63 1   
    63   62   66 1   
    64   63   64 1   
    65   63   67 1   
    66   63   68 1   
    67   64   65 2   
    68   64   69 1   
    69   69   70 1   
    70   69   76 1   
    71   70   71 1   
    72   70   73 1   
    73   70   77 1   
    74   71   72 2   
    75   71   83 1   
    76   73   74 1   
    77   73   75 1   
    78   73   78 1   
    79   74   80 1   
    80   74   81 1   
    81   74   82 1   
    82   75   79 1   
    83   83   84 1   
    84   83   91 1   
    85   84   85 1   
    86   84   87 1   
    87   84   92 1   
    88   85   86 2   
    89   85  102 1   
    90   87   88 1   
    91   87   89 1   
    92   87   93 1   
    93   88   90 1   
    94   88   94 1   
    95   88   95 1   
    96   89   96 1   
    97   89   97 1   
    98   89   98 1   
    99   90   99 1   
   100   90  100 1   
   101   90  101 1   
   102  102  103 1   
   103  102  110 1   
   104  103  104 1   
   105  103  106 1   
   106  103  111 1   
   107  104  105 2   
   108  104  114 1   
   109  106  107 1   
   110  106  112 1   
   111  106  113 1   
   112  107  108 1   
   113  107  109 1   
   114  114  115 1   
   115  114  125 1   
   116  115  116 1   
   117  115  118 1   
   118  115  126 1   
   119  116  117 2   
   120  116  134 1   
   121  118  119 1   
   122  118  127 1   
   123  118  128 1   
   124  119  120 ar  
   125  119  121 ar  
   126  120  122 ar  
   127  120  129 1   
   128  121  123 ar  
   129  121  130 1   
   130  122  124 ar  
   131  122  131 1   
   132  123  124 ar  
   133  123  132 1   
   134  124  133 1   
   135  134  135 1   
   136  134  140 1   
   137  135  136 1   
   138  135  138 1   
   139  135  141 1   
   140  136  137 2   
   141  136  148 1   
   142  138  139 1   
   143  138  142 1   
   144  138  143 1   
   145  139  140 1   
   146  139  144 1   
   147  139  145 1   
   148  140  146 1   
   149  140  147 1   
   150  148  149 1   
   151  148  157 1   
   152  149  150 1   
   153  149  152 1   
   154  149  158 1   
   155  150  151 2   
   156  150  163 1   
   157  152  153 1   
   158  152  159 1   
   159  152  160 1   
   160  153  154 1   
   161  153  161 1   
   162  153  162 1   
   163  154  155 1   
   164  154  156 1   
   165  163  164 1   
   166  163  168 1   
   167  164  165 1   
   168  164  166 1   
   169  164  167 1   
   170  170  171 1   
   171  170  172 1   
   172  173  174 1   
   173  173  175 1   
@<TRIPOS>SUBSTRUCTURE
     1 MOL         1 TEMP              0 ****  ****    0 ROOT
