@<TRIPOS>MOLECULE
MOL
  189   185     1     0     0
SMALL
resp


@<TRIPOS>ATOM
      1 C1         -0.0760    2.2300    5.8860 c3        1 MOL     -0.331102
      2 C2         -0.4020    1.7250    4.4900 c         1 MOL      0.828266
      3 O1          0.5140    1.6380    3.7020 o         1 MOL     -0.657661
      4 H1         -0.0890    1.3940    6.5860 hc        1 MOL      0.075754
      5 H2          0.9130    2.6870    5.8860 hc        1 MOL      0.075754
      6 H3         -0.8180    2.9680    6.1890 hc        1 MOL      0.075754
      7 N1         -1.6070    1.2870    4.1410 n         1 MOL     -0.661690
      8 C3         -2.1150    1.1820    2.7460 c3        1 MOL      0.158091
      9 C4         -2.4280    2.6350    2.3570 c         1 MOL      0.382452
     10 O2         -3.4870    3.2280    2.7310 o         1 MOL     -0.510715
     11 C5         -3.2920    0.2460    2.7170 c3        1 MOL     -0.347082
     12 C6         -4.2230    0.4210    1.4720 c         1 MOL      0.651804
     13 O3         -3.6220    0.4620    0.3370 o         1 MOL     -0.581305
     14 O4         -5.4800    0.2760    1.6870 o         1 MOL     -0.581305
     15 H4         -2.2980    1.0980    4.8540 hn        1 MOL      0.342662
     16 H5         -1.3100    0.8080    2.1030 h1        1 MOL      0.033290
     17 H6         -3.9200    0.3510    3.5990 hc        1 MOL      0.095529
     18 H7         -2.8270   -0.7380    2.7620 hc        1 MOL      0.095529
     19 N2         -1.4600    3.2620    1.6900 n         1 MOL     -0.174853
     20 C7         -1.5000    4.6900    1.3460 c3        1 MOL     -0.110386
     21 C8         -2.3570    5.0860    0.1200 c         1 MOL      0.498388
     22 O5         -2.6710    6.2280   -0.1110 o         1 MOL     -0.568316
     23 C9         -0.0590    5.2130    1.1620 c3        1 MOL      0.003507
     24 C10         0.6010    5.6780    2.4630 c3        1 MOL      0.121036
     25 C11         2.0270    6.0220    2.2070 c3        1 MOL      0.138322
     26 C12         2.4870    6.8460    3.3650 c3        1 MOL     -0.014139
     27 N3          3.5470    7.8610    2.9140 n4        1 MOL     -0.460364
     28 H8         -0.7330    2.7150    1.2500 hn        1 MOL      0.259610
     29 H9         -2.0210    5.1520    2.1880 h1        1 MOL      0.093283
     30 H10        -0.0500    6.0570    0.4800 hc        1 MOL      0.000726
     31 H11         0.5850    4.4840    0.6820 hc        1 MOL      0.000726
     32 H12         0.4710    4.9280    3.2340 hc        1 MOL     -0.040264
     33 H13         0.0670    6.5930    2.7110 hc        1 MOL     -0.040264
     34 H14         2.1160    6.5680    1.2600 hc        1 MOL     -0.014026
     35 H15         2.5660    5.0840    2.1130 hc        1 MOL     -0.014026
     36 H16         2.9490    6.1000    4.0100 hx        1 MOL      0.108307
     37 H17         1.7190    7.3740    3.9340 hx        1 MOL      0.108307
     38 H18         3.7400    8.4380    3.7160 hn        1 MOL      0.347022
     39 H19         4.4130    7.4550    2.5810 hn        1 MOL      0.347022
     40 H20         3.1660    8.4190    2.1550 hn        1 MOL      0.347022
     41 N4         -2.7760    4.1150   -0.7120 n         1 MOL     -0.213622
     42 C13        -3.5980    4.3660   -1.8820 c3        1 MOL      0.037153
     43 C14        -4.9850    3.6470   -1.8720 c         1 MOL      0.371758
     44 O6         -5.7430    3.7130   -2.8570 o         1 MOL     -0.506755
     45 C15        -2.7740    4.0660   -3.2180 c3        1 MOL     -0.218306
     46 C16        -2.1120    2.7670   -3.3470 c         1 MOL      0.884982
     47 O7         -1.0410    2.6560   -4.0240 o         1 MOL     -0.771057
     48 O8         -2.4820    1.8010   -2.6730 o         1 MOL     -0.771057
     49 H21        -2.4380    3.1740   -0.5700 hn        1 MOL      0.113543
     50 H22        -3.9350    5.3930   -2.0380 h1        1 MOL      0.111440
     51 H23        -2.0180    4.8450   -3.2470 hc        1 MOL      0.041943
     52 H24        -3.4230    4.2520   -4.0690 hc        1 MOL      0.041943
     53 N5         -5.3730    3.0640   -0.7760 n         1 MOL     -0.209209
     54 C17        -6.7110    2.5640   -0.5340 c3        1 MOL     -0.075236
     55 C18        -7.1220    1.4220   -1.4390 c         1 MOL      0.511643
     56 O9         -8.2160    1.4350   -1.9780 o         1 MOL     -0.583684
     57 H25        -4.6680    2.9620   -0.0630 hn        1 MOL      0.181515
     58 H26        -7.4680    3.3530   -0.5080 h1        1 MOL      0.081847
     59 H27        -6.7540    2.0970    0.4560 h1        1 MOL      0.081847
     60 N6         -6.3330    0.3320   -1.6180 n         1 MOL     -0.124731
     61 C19        -6.7660   -0.8710   -2.2680 c3        1 MOL      0.092733
     62 C20        -6.9360   -2.0170   -1.2430 c         1 MOL      0.311631
     63 O10        -7.0930   -3.1580   -1.6630 o         1 MOL     -0.501933
     64 C21        -5.7100   -1.1810   -3.3440 c3        1 MOL     -0.304687
     65 C22        -4.3660   -1.4360   -2.7720 c         1 MOL      0.958601
     66 O11        -3.3670   -1.1960   -3.4010 o         1 MOL     -0.778006
     67 O12        -4.2650   -2.0710   -1.6890 o         1 MOL     -0.778006
     68 H28        -5.4900    0.3710   -1.0550 hn        1 MOL     -0.025083
     69 H29        -7.7430   -0.6850   -2.7150 h1        1 MOL      0.103986
     70 H30        -5.6550   -0.3460   -4.0500 hc        1 MOL      0.076283
     71 H31        -6.0500   -2.1090   -3.8110 hc        1 MOL      0.076283
     72 N7         -6.8010   -1.7930    0.0990 n         1 MOL     -0.163959
     73 C23        -7.0560   -2.6640    1.2110 c3        1 MOL     -0.141583
     74 C24        -5.8090   -3.5260    1.4890 c         1 MOL      0.472576
     75 O13        -5.8830   -4.4550    2.3050 o         1 MOL     -0.586038
     76 H32        -6.5180   -0.8280    0.2730 hn        1 MOL      0.154351
     77 H33        -7.8870   -3.3480    1.0160 h1        1 MOL      0.104403
     78 H34        -7.3080   -2.1090    2.1090 h1        1 MOL      0.104403
     79 N8         -4.6690   -3.2230    0.9400 n         1 MOL     -0.054379
     80 C25        -3.4570   -4.0170    1.0410 c3        1 MOL     -0.052360
     81 C26        -2.2050   -3.2650    0.9440 c         1 MOL      0.430925
     82 O14        -2.2200   -2.1470    0.4630 o         1 MOL     -0.644621
     83 C27        -3.3940   -5.1430    0.0240 c3        1 MOL      0.566837
     84 C28        -4.3490   -6.2420    0.2920 c3        1 MOL     -0.371604
     85 O15        -3.5860   -4.6900   -1.3100 oh        1 MOL     -0.690679
     86 H35        -4.5880   -2.3930    0.3560 hn        1 MOL      0.076867
     87 H36        -3.4220   -4.4500    2.0400 h1        1 MOL      0.035921
     88 H37        -2.4090   -5.5970    0.1520 h1        1 MOL     -0.045969
     89 H38        -3.9830   -3.8240   -1.3100 ho        1 MOL      0.458877
     90 H39        -4.3830   -6.3290    1.3840 hc        1 MOL      0.078779
     91 H40        -5.3650   -6.0460   -0.0690 hc        1 MOL      0.078779
     92 H41        -3.9450   -7.1490   -0.1470 hc        1 MOL      0.078779
     93 N9         -1.1240   -3.7820    1.4930 n         1 MOL     -0.311155
     94 C29         0.2280   -3.1570    1.5770 c3        1 MOL     -0.005458
     95 C30         1.2070   -3.7980    0.5880 c         1 MOL      0.418346
     96 O16         1.5110   -4.9930    0.6840 o         1 MOL     -0.542695
     97 C31         0.7680   -3.2290    3.0230 c3        1 MOL     -0.022856
     98 C32        -0.1710   -2.4420    3.9340 c3        1 MOL     -0.094445
     99 C33         2.1590   -2.6500    3.3180 c3        1 MOL     -0.175785
    100 C34        -0.0450   -2.7650    5.3940 c3        1 MOL     -0.370728
    101 H42        -1.2600   -4.7530    1.7520 hn        1 MOL      0.236101
    102 H43         0.1830   -2.0850    1.3900 h1        1 MOL      0.151186
    103 H44         0.7320   -4.2780    3.3110 hc        1 MOL      0.055946
    104 H45        -1.2210   -2.3960    3.6370 hc        1 MOL      0.109551
    105 H46         0.2050   -1.4200    3.8410 hc        1 MOL      0.109551
    106 H47         2.1690   -1.5630    3.2280 hc        1 MOL      0.048087
    107 H48         2.5420   -2.9430    4.2950 hc        1 MOL      0.048087
    108 H49         2.9410   -3.1150    2.7150 hc        1 MOL      0.048087
    109 H50        -0.8400   -2.4550    6.0660 hc        1 MOL      0.096212
    110 H51         0.3210   -3.7910    5.4310 hc        1 MOL      0.096212
    111 H52         0.8470   -2.2700    5.7830 hc        1 MOL      0.096212
    112 N10         1.7670   -3.0150   -0.3480 n         1 MOL     -0.077078
    113 C35         2.9600   -3.2470   -1.1850 c3        1 MOL     -0.087372
    114 C36         4.2810   -3.1160   -0.4370 c         1 MOL      0.350487
    115 O17         4.2870   -2.5050    0.6340 o         1 MOL     -0.300090
    116 C37         3.0330   -2.3160   -2.4100 c3        1 MOL      0.251221
    117 C38         1.8940   -2.4450   -3.3770 c3        1 MOL     -0.410090
    118 O18         3.0880   -0.9150   -1.9640 oh        1 MOL     -0.544733
    119 H53         1.3380   -2.1100   -0.4450 hn        1 MOL      0.081662
    120 H54         2.8990   -4.2450   -1.6290 h1        1 MOL      0.067184
    121 H55         3.9190   -2.5250   -3.0010 h1        1 MOL      0.051923
    122 H56         2.1800   -0.6710   -1.7730 ho        1 MOL      0.303087
    123 H57         1.6330   -3.4880   -3.5950 hc        1 MOL      0.118503
    124 H58         1.0210   -1.9110   -3.0030 hc        1 MOL      0.118503
    125 H59         2.1270   -1.9740   -4.3230 hc        1 MOL      0.118503
    126 N11         5.3860   -3.4960   -1.0290 n         1 MOL     -0.284142
    127 C39         6.7920   -3.3610   -0.5080 c3        1 MOL     -0.192488
    128 C40         7.2340   -1.9410   -0.2010 c         1 MOL      0.499347
    129 O19         7.6550   -1.6560    0.8580 o         1 MOL     -0.459205
    130 C41         7.7600   -3.8550   -1.5070 c3        1 MOL      0.274076
    131 C42         7.9100   -5.4110   -1.5180 c3        1 MOL     -0.271027
    132 O20         7.3970   -3.4910   -2.7920 oh        1 MOL     -0.598917
    133 H60         5.3140   -3.9320   -1.9410 hn        1 MOL      0.281554
    134 H61         6.9090   -3.9660    0.3960 h1        1 MOL      0.144160
    135 H62         8.7750   -3.4960   -1.2980 h1        1 MOL      0.044640
    136 H63         8.2200   -3.3150   -3.2680 ho        1 MOL      0.398185
    137 H64         6.9450   -5.8890   -1.6660 hc        1 MOL      0.079901
    138 H65         8.5560   -5.7820   -2.3070 hc        1 MOL      0.079901
    139 H66         8.4310   -5.7390   -0.6180 hc        1 MOL      0.079901
    140 N12         6.8580   -1.0840   -1.1710 n         1 MOL     -0.407256
    141 C43         7.0900    0.3420   -1.0970 c3        1 MOL     -0.005459
    142 C44         6.3300    1.0450    0.1020 c         1 MOL      0.291724
    143 O21         6.8930    1.9300    0.7870 o         1 MOL     -0.523151
    144 C45         6.6040    0.9480   -2.4770 c3        1 MOL     -0.031975
    145 C46         6.7150    2.4500   -2.6160 c3        1 MOL      0.025736
    146 C47         6.3920    2.9530   -4.0510 c3        1 MOL      0.001509
    147 C48         6.4640    4.4690   -4.2310 c3        1 MOL      0.209927
    148 N13         6.0280    4.8870   -5.5480 n4        1 MOL     -0.395170
    149 H67         6.5510   -1.4570   -2.0490 hn        1 MOL      0.240696
    150 H68         8.1320    0.6320   -0.9480 h1        1 MOL      0.110620
    151 H69         5.5890    0.5780   -2.6560 hc        1 MOL      0.021095
    152 H70         7.2010    0.6280   -3.3260 hc        1 MOL      0.021095
    153 H71         7.6750    2.7700   -2.2110 hc        1 MOL      0.014514
    154 H72         5.8560    2.7840   -2.0350 hc        1 MOL      0.014514
    155 H73         5.4280    2.6690   -4.4620 hc        1 MOL      0.007021
    156 H74         7.1750    2.5830   -4.7220 hc        1 MOL      0.007021
    157 H75         7.5200    4.7360   -4.1830 hx        1 MOL      0.023265
    158 H76         6.0820    4.9590   -3.3390 hx        1 MOL      0.023265
    159 H77         5.0490    4.6400   -5.6060 hn        1 MOL      0.320914
    160 H78         6.2280    5.8390   -5.8180 hn        1 MOL      0.320914
    161 H79         6.4650    4.3740   -6.3040 hn        1 MOL      0.320914
    162 N14         5.1100    0.6070    0.4040 n         1 MOL     -0.039859
    163 C49         4.3300    0.9970    1.5200 c3        1 MOL     -0.172753
    164 C50         4.7440    0.3350    2.8360 c         1 MOL      0.577521
    165 O22         4.5970    1.0310    3.8410 o         1 MOL     -0.586621
    166 C51         2.8810    0.5130    1.2180 c3        1 MOL      0.102398
    167 C52         2.0920    1.3220    0.1780 c3        1 MOL     -0.100179
    168 C53         0.7610    0.6490   -0.1680 c         1 MOL      0.653679
    169 O23        -0.3060    1.2490    0.0670 o         1 MOL     -0.671079
    170 O24         0.7260   -0.4660   -0.7800 o         1 MOL     -0.671079
    171 H80         4.7230   -0.0770   -0.2370 hn        1 MOL      0.163855
    172 H81         4.3280    2.0760    1.6440 h1        1 MOL      0.082870
    173 H82         2.3330    0.5210    2.1600 hc        1 MOL      0.034421
    174 H83         2.9560   -0.5020    0.8230 hc        1 MOL      0.034421
    175 H84         2.6520    1.3620   -0.7600 hc        1 MOL      0.008523
    176 H85         1.9340    2.3820    0.4150 hc        1 MOL      0.008523
    177 N15         5.3280   -0.8390    2.8370 n         1 MOL     -0.198903
    178 C54         5.5920   -1.7080    3.9970 c3        1 MOL     -0.251733
    179 H86         4.6750   -2.2260    4.2780 h1        1 MOL      0.105273
    180 H87         6.3570   -2.4390    3.7380 h1        1 MOL      0.105273
    181 H88         5.9370   -1.1010    4.8340 h1        1 MOL      0.105273
    182 H89         5.4020   -1.3460    1.9730 hn        1 MOL      0.164717
    183 Ca1        -1.8570   -0.4560   -1.4760 Ca        1 MOL      1.755192
    184 O25        -0.3900    0.1520   -3.7620 oh        1 MOL     -0.835330
    185 H90        -0.5900    1.0910   -3.6590 ho        1 MOL      0.388102
    186 H91         0.3210    0.1310   -4.4100 ho        1 MOL      0.388102
    187 O26        -1.2090   -3.0690   -2.0050 oh        1 MOL     -0.835330
    188 H92        -0.9890   -3.1150   -2.9370 ho        1 MOL      0.388102
    189 H93        -1.8410   -3.7740   -1.8850 ho        1 MOL      0.388102
@<TRIPOS>BOND
     1    1    2 1   
     2    1    4 1   
     3    1    5 1   
     4    1    6 1   
     5    2    3 2   
     6    2    7 1   
     7    7    8 1   
     8    7   15 1   
     9    8    9 1   
    10    8   11 1   
    11    8   16 1   
    12    9   10 2   
    13    9   19 1   
    14   11   12 1   
    15   11   17 1   
    16   11   18 1   
    17   12   13 1   
    18   12   14 1   
    19   19   20 1   
    20   19   28 1   
    21   20   21 1   
    22   20   23 1   
    23   20   29 1   
    24   21   22 2   
    25   21   41 1   
    26   23   24 1   
    27   23   30 1   
    28   23   31 1   
    29   24   25 1   
    30   24   32 1   
    31   24   33 1   
    32   25   26 1   
    33   25   34 1   
    34   25   35 1   
    35   26   27 1   
    36   26   36 1   
    37   26   37 1   
    38   27   38 1   
    39   27   39 1   
    40   27   40 1   
    41   41   42 1   
    42   41   49 1   
    43   42   43 1   
    44   42   45 1   
    45   42   50 1   
    46   43   44 2   
    47   43   53 1   
    48   45   46 1   
    49   45   51 1   
    50   45   52 1   
    51   46   47 1   
    52   46   48 1   
    53   53   54 1   
    54   53   57 1   
    55   54   55 1   
    56   54   58 1   
    57   54   59 1   
    58   55   56 2   
    59   55   60 1   
    60   60   61 1   
    61   60   68 1   
    62   61   62 1   
    63   61   64 1   
    64   61   69 1   
    65   62   63 2   
    66   62   72 1   
    67   64   65 1   
    68   64   70 1   
    69   64   71 1   
    70   65   66 1   
    71   65   67 1   
    72   72   73 1   
    73   72   76 1   
    74   73   74 1   
    75   73   77 1   
    76   73   78 1   
    77   74   75 2   
    78   74   79 1   
    79   79   80 1   
    80   79   86 1   
    81   80   81 1   
    82   80   83 1   
    83   80   87 1   
    84   81   82 2   
    85   81   93 1   
    86   83   84 1   
    87   83   85 1   
    88   83   88 1   
    89   84   90 1   
    90   84   91 1   
    91   84   92 1   
    92   85   89 1   
    93   93   94 1   
    94   93  101 1   
    95   94   95 1   
    96   94   97 1   
    97   94  102 1   
    98   95   96 2   
    99   95  112 1   
   100   97   98 1   
   101   97   99 1   
   102   97  103 1   
   103   98  100 1   
   104   98  104 1   
   105   98  105 1   
   106   99  106 1   
   107   99  107 1   
   108   99  108 1   
   109  100  109 1   
   110  100  110 1   
   111  100  111 1   
   112  112  113 1   
   113  112  119 1   
   114  113  114 1   
   115  113  116 1   
   116  113  120 1   
   117  114  115 2   
   118  114  126 1   
   119  116  117 1   
   120  116  118 1   
   121  116  121 1   
   122  117  123 1   
   123  117  124 1   
   124  117  125 1   
   125  118  122 1   
   126  126  127 1   
   127  126  133 1   
   128  127  128 1   
   129  127  130 1   
   130  127  134 1   
   131  128  129 2   
   132  128  140 1   
   133  130  131 1   
   134  130  132 1   
   135  130  135 1   
   136  131  137 1   
   137  131  138 1   
   138  131  139 1   
   139  132  136 1   
   140  140  141 1   
   141  140  149 1   
   142  141  142 1   
   143  141  144 1   
   144  141  150 1   
   145  142  143 2   
   146  142  162 1   
   147  144  145 1   
   148  144  151 1   
   149  144  152 1   
   150  145  146 1   
   151  145  153 1   
   152  145  154 1   
   153  146  147 1   
   154  146  155 1   
   155  146  156 1   
   156  147  148 1   
   157  147  157 1   
   158  147  158 1   
   159  148  159 1   
   160  148  160 1   
   161  148  161 1   
   162  162  163 1   
   163  162  171 1   
   164  163  164 1   
   165  163  166 1   
   166  163  172 1   
   167  164  165 2   
   168  164  177 1   
   169  166  167 1   
   170  166  173 1   
   171  166  174 1   
   172  167  168 1   
   173  167  175 1   
   174  167  176 1   
   175  168  169 1   
   176  168  170 1   
   177  177  178 1   
   178  177  182 1   
   179  178  179 1   
   180  178  180 1   
   181  178  181 1   
   182  184  185 1   
   183  184  186 1   
   184  187  188 1   
   185  187  189 1   
@<TRIPOS>SUBSTRUCTURE
     1 MOL         1 TEMP              0 ****  ****    0 ROOT
