@<TRIPOS>MOLECULE
MOL
  189   185     1     0     0
SMALL
resp


@<TRIPOS>ATOM
      1 C1          1.5260   -3.2440    6.0680 c3        1 MOL     -0.513183
      2 C2          1.3950   -3.0170    4.5260 c         1 MOL      0.799335
      3 O1          0.9150   -2.0460    3.9980 o         1 MOL     -0.614867
      4 H1          2.5790   -3.3360    6.3340 hc        1 MOL      0.128639
      5 H2          1.0910   -2.3970    6.5990 hc        1 MOL      0.128639
      6 H3          1.0000   -4.1570    6.3480 hc        1 MOL      0.128639
      7 N1          1.9020   -3.9700    3.7750 n         1 MOL     -0.652897
      8 C3          2.4500   -3.7450    2.4370 c3        1 MOL      0.397147
      9 C4          2.2350   -4.9660    1.4910 c         1 MOL      0.402549
     10 O2          2.2100   -6.0850    1.9650 o         1 MOL     -0.580076
     11 C5          3.9440   -3.5140    2.5170 c3        1 MOL     -0.500415
     12 C6          4.5400   -2.7120    1.4310 c         1 MOL      0.918681
     13 O3          3.9010   -2.5000    0.3710 o         1 MOL     -0.724328
     14 O4          5.7110   -2.2860    1.5730 o         1 MOL     -0.724328
     15 H4          2.3220   -4.7400    4.2730 hn        1 MOL      0.306053
     16 H5          1.9580   -2.8740    1.9940 h1        1 MOL      0.061112
     17 H6          4.3150   -4.5350    2.3940 hc        1 MOL      0.093457
     18 H7          4.1540   -3.0080    3.4610 hc        1 MOL      0.093457
     19 N2          1.9470   -4.6450    0.2590 n         1 MOL     -0.046034
     20 C7          1.9740   -5.6290   -0.8430 c3        1 MOL     -0.040624
     21 C8          2.7780   -5.1560   -2.0270 c         1 MOL      0.356989
     22 O5          2.9960   -5.9080   -3.0130 o         1 MOL     -0.569994
     23 C9          0.5380   -6.0530   -1.3370 c3        1 MOL      0.152887
     24 C10        -0.2790   -4.9110   -2.0150 c3        1 MOL     -0.122992
     25 C11        -0.2350   -6.4980   -0.1200 c3        1 MOL     -0.060056
     26 C12        -1.7610   -5.1480   -2.3960 c3        1 MOL     -0.169965
     27 H8          1.8220   -3.6560    0.1010 hn        1 MOL     -0.018634
     28 H9          2.4760   -6.5360   -0.5220 h1        1 MOL      0.088729
     29 H10         0.6740   -6.9190   -1.9870 hc        1 MOL     -0.013464
     30 H11         0.1850   -4.6090   -2.9560 hc        1 MOL      0.064008
     31 H12        -0.2880   -3.9980   -1.4110 hc        1 MOL      0.064008
     32 H13        -0.3560   -5.6760    0.5780 hc        1 MOL      0.001969
     33 H14        -1.1780   -7.0070   -0.3020 hc        1 MOL      0.001969
     34 H15         0.3610   -7.2750    0.3440 hc        1 MOL      0.001969
     35 H16        -2.1240   -4.3020   -2.9910 hc        1 MOL      0.045937
     36 H17        -1.8750   -6.0190   -3.0390 hc        1 MOL      0.045937
     37 H18        -2.4980   -5.2740   -1.6020 hc        1 MOL      0.045937
     38 N3          3.1880   -3.9050   -2.0270 n         1 MOL     -0.157868
     39 C13         3.7620   -3.4000   -3.2010 c3        1 MOL     -0.031534
     40 C14         5.1050   -2.5700   -3.0300 c         1 MOL      0.427839
     41 O6          5.6180   -2.0790   -4.0210 o         1 MOL     -0.519909
     42 C15         2.7290   -2.5360   -3.9700 c3        1 MOL     -0.106966
     43 C16         2.4340   -1.1600   -3.3660 c         1 MOL      0.662602
     44 O7          3.1480   -0.7530   -2.4000 o         1 MOL     -0.645761
     45 O8          1.6920   -0.3780   -3.9610 o         1 MOL     -0.645761
     46 H19         3.1000   -3.3170   -1.2050 hn        1 MOL      0.097899
     47 H20         3.9920   -4.1830   -3.9180 h1        1 MOL      0.113770
     48 H21         1.8110   -3.0940   -4.1310 hc        1 MOL      0.039460
     49 H22         3.2100   -2.3320   -4.9270 hc        1 MOL      0.039460
     50 N4          5.7450   -2.4520   -1.8270 n         1 MOL     -0.315625
     51 C17         6.9860   -1.7490   -1.6840 c3        1 MOL     -0.214215
     52 C18         7.1080   -0.2100   -1.9880 c         1 MOL      0.551016
     53 O9          8.2310    0.2730   -1.9160 o         1 MOL     -0.623990
     54 H23         5.3450   -2.7360   -0.9360 hn        1 MOL      0.240103
     55 H24         7.7070   -2.2280   -2.3410 h1        1 MOL      0.100689
     56 H25         7.2980   -2.0060   -0.6760 h1        1 MOL      0.100689
     57 N5          6.0360    0.5380   -2.2040 n         1 MOL     -0.190924
     58 C19         6.0480    1.8920   -2.8520 c3        1 MOL      0.061371
     59 C20         6.5400    2.9580   -1.8400 c         1 MOL      0.396107
     60 O10         7.0090    3.9770   -2.2660 o         1 MOL     -0.565905
     61 C21         4.6680    2.2370   -3.3590 c3        1 MOL     -0.485135
     62 C22         3.5460    2.3880   -2.3170 c         1 MOL      0.825632
     63 O11         3.6370    1.9070   -1.1500 o         1 MOL     -0.689734
     64 O12         2.5090    2.8610   -2.7820 o         1 MOL     -0.689734
     65 H26         5.1860   -0.0040   -2.3440 hn        1 MOL      0.196698
     66 H27         6.7350    1.8220   -3.6910 h1        1 MOL      0.067117
     67 H28         4.3680    1.5120   -4.1140 hc        1 MOL      0.149253
     68 H29         4.8360    3.2300   -3.7740 hc        1 MOL      0.149253
     69 N6          6.4580    2.7040   -0.5660 n         1 MOL     -0.049099
     70 C23         6.7670    3.5640    0.5350 c3        1 MOL     -0.265427
     71 C24         5.5450    4.1840    1.1480 c         1 MOL      0.527834
     72 O13         5.6740    5.1810    1.9460 o         1 MOL     -0.614879
     73 H30         6.1970    1.7370   -0.4080 hn        1 MOL      0.152046
     74 H31         7.4440    4.3230    0.1590 h1        1 MOL      0.113163
     75 H32         7.2930    2.9790    1.2890 h1        1 MOL      0.113163
     76 N7          4.3640    3.6410    0.9270 n         1 MOL     -0.178309
     77 C25         3.1780    4.0770    1.6480 c3        1 MOL     -0.077124
     78 C26         2.2640    2.9500    1.9880 c         1 MOL      0.635923
     79 O14         2.1560    2.0390    1.1940 o         1 MOL     -0.582274
     80 C27         2.4020    5.1910    0.9300 c3        1 MOL     -0.009745
     81 C28         3.2390    6.5000    0.6690 c3        1 MOL     -0.264281
     82 C29         2.3510    7.6470    0.1970 c         1 MOL      0.596125
     83 N8          1.8540    7.6610   -1.0130 n         1 MOL     -0.738740
     84 O15         2.0370    8.5730    0.9450 o         1 MOL     -0.587976
     85 H33         4.2200    2.8750    0.2870 hn        1 MOL      0.118392
     86 H34         3.4380    4.4360    2.6500 h1        1 MOL      0.051697
     87 H35         1.6200    5.5060    1.6180 hc        1 MOL      0.069808
     88 H36         2.0510    4.8470   -0.0370 hc        1 MOL      0.069808
     89 H37         4.0200    6.4590   -0.0750 hc        1 MOL      0.109328
     90 H38         3.7600    6.7260    1.6000 hc        1 MOL      0.109328
     91 H39         2.1130    6.9460   -1.6850 hn        1 MOL      0.350261
     92 H40         1.4270    8.5310   -1.3070 hn        1 MOL      0.350261
     93 N9          1.4310    3.0120    3.1100 n         1 MOL     -0.671765
     94 C30         0.2490    2.1600    3.1650 c3        1 MOL      0.232475
     95 C31        -0.9190    2.8190    2.3520 c         1 MOL      0.250964
     96 O16        -1.2140    4.0080    2.4930 o         1 MOL     -0.571865
     97 C32        -0.1980    1.9630    4.6510 c3        1 MOL      0.206276
     98 C33        -1.4200    1.0950    4.6890 c3        1 MOL     -0.179672
     99 C34         0.8810    1.2750    5.4400 c3        1 MOL     -0.179672
    100 H41         1.3570    3.9300    3.5230 hn        1 MOL      0.323573
    101 H42         0.4690    1.1650    2.7940 h1        1 MOL      0.151287
    102 H43        -0.3880    2.9250    5.1250 hc        1 MOL     -0.026537
    103 H44        -1.2510    0.1580    4.1600 hc        1 MOL      0.023650
    104 H45        -1.6700    0.9400    5.7310 hc        1 MOL      0.023650
    105 H46        -2.2720    1.6450    4.2800 hc        1 MOL      0.023650
    106 H47         1.7660    1.9070    5.5280 hc        1 MOL      0.023650
    107 H48         0.5240    0.9970    6.4310 hc        1 MOL      0.023650
    108 H49         1.3040    0.4330    4.8830 hc        1 MOL      0.023650
    109 N10        -1.5910    2.0530    1.4990 n         1 MOL      0.059061
    110 C35        -2.7730    2.5480    0.7940 c3        1 MOL      0.166023
    111 C36        -4.1230    1.9200    1.2360 c         1 MOL      0.375563
    112 O17        -4.1100    0.8840    1.8910 o         1 MOL     -0.472505
    113 C37        -2.5320    2.5030   -0.6950 c3        1 MOL     -0.066589
    114 C38        -3.0970    1.3270   -1.3740 c         1 MOL      0.758328
    115 N11        -2.3630    0.3780   -1.7030 n         1 MOL     -0.827372
    116 O18        -4.2480    1.1740   -1.7730 o         1 MOL     -0.675396
    117 H50        -1.2190    1.1470    1.2670 hn        1 MOL     -0.022287
    118 H51        -2.8600    3.6150    0.9800 h1        1 MOL      0.021266
    119 H52        -1.4630    2.5670   -0.8900 hc        1 MOL      0.003745
    120 H53        -3.0270    3.3820   -1.1150 hc        1 MOL      0.003745
    121 H54        -1.4250    0.3510   -1.3060 hn        1 MOL      0.437044
    122 H55        -2.7090   -0.2780   -2.3870 hn        1 MOL      0.437044
    123 N12        -5.2220    2.5500    0.8520 n         1 MOL     -0.412762
    124 C39        -6.5490    2.1390    1.2710 c3        1 MOL      0.204240
    125 C40        -6.8860    0.7130    0.8540 c         1 MOL      0.114937
    126 O19        -7.7250    0.1210    1.5770 o         1 MOL     -0.521147
    127 C41        -7.6010    3.0870    0.6930 c3        1 MOL     -0.276076
    128 C42        -7.7630    2.9950   -0.8220 ca        1 MOL      0.189651
    129 C43        -8.5600    1.9760   -1.4270 ca        1 MOL     -0.249975
    130 C44        -7.0160    3.8770   -1.6540 ca        1 MOL     -0.249975
    131 C45        -8.6700    1.8750   -2.8010 ca        1 MOL     -0.294804
    132 C46        -7.1700    3.8160   -3.0220 ca        1 MOL     -0.294804
    133 C47        -7.9900    2.7770   -3.6180 ca        1 MOL      0.360538
    134 O20        -8.0980    2.6220   -4.9520 oh        1 MOL     -0.508703
    135 H56        -5.0560    3.3860    0.2960 hn        1 MOL      0.255467
    136 H57        -6.5210    2.1650    2.3590 h1        1 MOL      0.094234
    137 H58        -7.3160    4.1190    0.9300 hc        1 MOL      0.069236
    138 H59        -8.5650    2.8200    1.1170 hc        1 MOL      0.069236
    139 H60        -9.0120    1.1720   -0.8680 ha        1 MOL      0.170500
    140 H61        -6.2020    4.4940   -1.3130 ha        1 MOL      0.170500
    141 H62        -9.3180    1.0620   -3.1030 ha        1 MOL      0.171571
    142 H63        -6.4760    4.3890   -3.6190 ha        1 MOL      0.171571
    143 H64        -8.7610    1.9890   -5.2490 ho        1 MOL      0.393900
    144 N13        -6.3580    0.1100   -0.2110 n         1 MOL      0.111676
    145 C48        -6.4670   -1.2960   -0.5730 c3        1 MOL     -0.051554
    146 C49        -5.6820   -2.2240    0.3880 c         1 MOL      0.323533
    147 O21        -5.9640   -3.4320    0.5510 o         1 MOL     -0.552029
    148 C50        -5.9130   -1.5450   -1.9390 c3        1 MOL      0.146676
    149 C51        -6.7840   -0.7750   -2.9480 c3        1 MOL     -0.338402
    150 C52        -6.4920   -1.3270   -4.3770 c         1 MOL      0.730026
    151 O22        -5.7880   -0.7150   -5.2000 o         1 MOL     -0.737185
    152 O23        -6.9220   -2.5020   -4.6410 o         1 MOL     -0.737185
    153 H65        -5.9200    0.7350   -0.8660 hn        1 MOL      0.234008
    154 H66        -7.5080   -1.6280   -0.5690 h1        1 MOL      0.055077
    155 H67        -5.9870   -2.5830   -2.2580 hc        1 MOL      0.013012
    156 H68        -4.8610   -1.2410   -1.9710 hc        1 MOL      0.013012
    157 H69        -6.6130    0.2940   -2.8670 hc        1 MOL      0.055724
    158 H70        -7.8550   -0.9420   -2.7830 hc        1 MOL      0.055724
    159 N14        -4.6470   -1.7480    1.0950 n         1 MOL     -0.204495
    160 C53        -3.7080   -2.5280    1.9740 c3        1 MOL     -0.286637
    161 C54        -4.2070   -2.4600    3.4620 c         1 MOL      0.459973
    162 O24        -3.5980   -2.8010    4.4400 o         1 MOL     -0.525510
    163 C55        -2.2700   -1.9810    1.9860 c3        1 MOL      0.209986
    164 C56        -1.5870   -2.1110    0.6620 c3        1 MOL      0.198623
    165 C57        -0.1940   -1.4300    0.6340 c         1 MOL      0.230070
    166 O25        -0.0210   -0.3200    1.1600 o         1 MOL     -0.539626
    167 O26         0.7140   -1.8920   -0.0380 o         1 MOL     -0.539626
    168 H71        -4.4420   -0.7590    1.1400 hn        1 MOL      0.092397
    169 H72        -3.7050   -3.5700    1.6710 h1        1 MOL      0.161982
    170 H73        -1.7380   -2.5980    2.6990 hc        1 MOL      0.009494
    171 H74        -2.3080   -0.9270    2.2830 hc        1 MOL      0.009494
    172 H75        -2.1770   -1.6900   -0.1490 hc        1 MOL     -0.025299
    173 H76        -1.5810   -3.1830    0.4880 hc        1 MOL     -0.025299
    174 N15        -5.5140   -2.1870    3.6690 n         1 MOL     -0.203850
    175 C58        -6.1800   -2.1830    4.9300 c3        1 MOL     -0.077504
    176 H77        -5.4430   -2.2470    5.7300 h1        1 MOL      0.042138
    177 H78        -6.7520   -1.2610    5.0360 h1        1 MOL      0.042138
    178 H79        -6.8540   -3.0380    4.9880 h1        1 MOL      0.042138
    179 H80        -6.0740   -1.9610    2.8600 hn        1 MOL      0.258954
    180 Ca1         2.6770   -0.1390    0.0180 Ca        1 MOL      1.674916
    181 O27         5.2280    0.5220    1.0130 oh        1 MOL     -0.894392
    182 H81         5.4470    0.8240    1.8970 ho        1 MOL      0.423878
    183 H82         5.4970   -0.3950    1.0050 ho        1 MOL      0.423878
    184 O28         2.6890   -0.5530    2.5800 oh        1 MOL     -0.894392
    185 H83         3.2550   -0.4190    3.3360 ho        1 MOL      0.423878
    186 H84         1.8400   -0.7650    2.9440 ho        1 MOL      0.423878
    187 O29         0.7110    0.8130   -1.8510 oh        1 MOL     -0.894392
    188 H85         1.1300    1.6490   -2.0120 ho        1 MOL      0.423878
    189 H86         1.0760    0.2250   -2.5120 ho        1 MOL      0.423878
@<TRIPOS>BOND
     1    1    2 1   
     2    1    4 1   
     3    1    5 1   
     4    1    6 1   
     5    2    3 2   
     6    2    7 1   
     7    7    8 1   
     8    7   15 1   
     9    8    9 1   
    10    8   11 1   
    11    8   16 1   
    12    9   10 2   
    13    9   19 1   
    14   11   12 1   
    15   11   17 1   
    16   11   18 1   
    17   12   13 1   
    18   12   14 1   
    19   19   20 1   
    20   19   27 1   
    21   20   21 1   
    22   20   23 1   
    23   20   28 1   
    24   21   22 2   
    25   21   38 1   
    26   23   24 1   
    27   23   25 1   
    28   23   29 1   
    29   24   26 1   
    30   24   30 1   
    31   24   31 1   
    32   25   32 1   
    33   25   33 1   
    34   25   34 1   
    35   26   35 1   
    36   26   36 1   
    37   26   37 1   
    38   38   39 1   
    39   38   46 1   
    40   39   40 1   
    41   39   42 1   
    42   39   47 1   
    43   40   41 2   
    44   40   50 1   
    45   42   43 1   
    46   42   48 1   
    47   42   49 1   
    48   43   44 1   
    49   43   45 1   
    50   50   51 1   
    51   50   54 1   
    52   51   52 1   
    53   51   55 1   
    54   51   56 1   
    55   52   53 2   
    56   52   57 1   
    57   57   58 1   
    58   57   65 1   
    59   58   59 1   
    60   58   61 1   
    61   58   66 1   
    62   59   60 2   
    63   59   69 1   
    64   61   62 1   
    65   61   67 1   
    66   61   68 1   
    67   62   63 1   
    68   62   64 1   
    69   69   70 1   
    70   69   73 1   
    71   70   71 1   
    72   70   74 1   
    73   70   75 1   
    74   71   72 2   
    75   71   76 1   
    76   76   77 1   
    77   76   85 1   
    78   77   78 1   
    79   77   80 1   
    80   77   86 1   
    81   78   79 2   
    82   78   93 1   
    83   80   81 1   
    84   80   87 1   
    85   80   88 1   
    86   81   82 1   
    87   81   89 1   
    88   81   90 1   
    89   82   83 1   
    90   82   84 2   
    91   83   91 1   
    92   83   92 1   
    93   93   94 1   
    94   93  100 1   
    95   94   95 1   
    96   94   97 1   
    97   94  101 1   
    98   95   96 2   
    99   95  109 1   
   100   97   98 1   
   101   97   99 1   
   102   97  102 1   
   103   98  103 1   
   104   98  104 1   
   105   98  105 1   
   106   99  106 1   
   107   99  107 1   
   108   99  108 1   
   109  109  110 1   
   110  109  117 1   
   111  110  111 1   
   112  110  113 1   
   113  110  118 1   
   114  111  112 2   
   115  111  123 1   
   116  113  114 1   
   117  113  119 1   
   118  113  120 1   
   119  114  115 1   
   120  114  116 2   
   121  115  121 1   
   122  115  122 1   
   123  123  124 1   
   124  123  135 1   
   125  124  125 1   
   126  124  127 1   
   127  124  136 1   
   128  125  126 2   
   129  125  144 1   
   130  127  128 1   
   131  127  137 1   
   132  127  138 1   
   133  128  129 ar  
   134  128  130 ar  
   135  129  131 ar  
   136  129  139 1   
   137  130  132 ar  
   138  130  140 1   
   139  131  133 ar  
   140  131  141 1   
   141  132  133 ar  
   142  132  142 1   
   143  133  134 1   
   144  134  143 1   
   145  144  145 1   
   146  144  153 1   
   147  145  146 1   
   148  145  148 1   
   149  145  154 1   
   150  146  147 2   
   151  146  159 1   
   152  148  149 1   
   153  148  155 1   
   154  148  156 1   
   155  149  150 1   
   156  149  157 1   
   157  149  158 1   
   158  150  151 1   
   159  150  152 1   
   160  159  160 1   
   161  159  168 1   
   162  160  161 1   
   163  160  163 1   
   164  160  169 1   
   165  161  162 2   
   166  161  174 1   
   167  163  164 1   
   168  163  170 1   
   169  163  171 1   
   170  164  165 1   
   171  164  172 1   
   172  164  173 1   
   173  165  166 1   
   174  165  167 1   
   175  174  175 1   
   176  174  179 1   
   177  175  176 1   
   178  175  177 1   
   179  175  178 1   
   180  181  182 1   
   181  181  183 1   
   182  184  185 1   
   183  184  186 1   
   184  187  188 1   
   185  187  189 1   
@<TRIPOS>SUBSTRUCTURE
     1 MOL         1 TEMP              0 ****  ****    0 ROOT
