@<TRIPOS>MOLECULE
MOL
  179   176     1     0     0
SMALL
resp


@<TRIPOS>ATOM
      1 C1          1.5580    4.1410    3.9100 c3        1 MOL     -0.280217
      2 C2          0.7500    3.5560    2.8140 c         1 MOL      0.530640
      3 O1          1.2090    3.4540    1.6890 o         1 MOL     -0.584710
      4 H1          2.6180    3.9940    3.6970 hc        1 MOL      0.080432
      5 H2          1.3490    5.2070    3.9870 hc        1 MOL      0.080432
      6 H3          1.3050    3.6500    4.8500 hc        1 MOL      0.080432
      7 N1         -0.4750    3.1340    3.0910 n         1 MOL     -0.509005
      8 C3         -1.4450    2.5330    2.1200 c3        1 MOL     -0.066993
      9 C4         -2.3430    3.6190    1.4270 c         1 MOL      0.613747
     10 O2         -3.5640    3.7930    1.7390 o         1 MOL     -0.508210
     11 C5         -2.3290    1.4470    2.7960 c3        1 MOL      0.136459
     12 C6         -3.2510    0.7800    1.8080 c         1 MOL      0.420261
     13 O3         -4.3720    0.4310    2.2540 o         1 MOL     -0.642922
     14 O4         -3.0230    0.6230    0.6220 o         1 MOL     -0.642922
     15 H4         -0.7270    3.1500    4.0640 hn        1 MOL      0.324942
     16 H5         -0.8420    2.0820    1.3340 h1        1 MOL      0.015465
     17 H6         -2.8390    1.9000    3.6460 hc        1 MOL      0.002131
     18 H7         -1.6850    0.7040    3.2500 hc        1 MOL      0.002131
     19 N2         -1.7920    4.3980    0.5160 n         1 MOL     -0.425976
     20 C7         -2.4190    5.6190   -0.0070 c3        1 MOL     -0.148653
     21 C8         -3.7010    5.2820   -0.7790 c         1 MOL      0.375110
     22 O5         -4.6130    6.0960   -0.8020 o         1 MOL     -0.491590
     23 C9         -1.4470    6.3820   -0.9400 c3        1 MOL      0.060298
     24 C10        -0.1700    6.8310   -0.2370 c3        1 MOL     -0.071267
     25 C11         0.6790    7.6720   -1.0970 c3        1 MOL     -0.079678
     26 C12         1.9150    8.3040   -0.4100 c3        1 MOL      0.180327
     27 N3          2.4870    7.6300    0.7700 n4        1 MOL     -0.483158
     28 H8         -0.8310    4.2000    0.2790 hn        1 MOL      0.320904
     29 H9         -2.8690    6.1820    0.8110 h1        1 MOL      0.137709
     30 H10        -1.9830    7.2460   -1.2980 hc        1 MOL      0.044376
     31 H11        -1.2160    5.8900   -1.8900 hc        1 MOL      0.044376
     32 H12         0.5540    6.0430   -0.0340 hc        1 MOL      0.026585
     33 H13        -0.5370    7.3140    0.6650 hc        1 MOL      0.026585
     34 H14         0.1180    8.5120   -1.5060 hc        1 MOL      0.057823
     35 H15         0.9690    7.0570   -1.9510 hc        1 MOL      0.057823
     36 H16         1.7220    9.3590   -0.2200 hx        1 MOL      0.042132
     37 H17         2.6810    8.4500   -1.1830 hx        1 MOL      0.042132
     38 H18         1.9150    7.6670    1.6100 hn        1 MOL      0.365099
     39 H19         2.6180    6.6500    0.5580 hn        1 MOL      0.365099
     40 H20         3.3430    8.1450    0.9690 hn        1 MOL      0.365099
     41 N4         -3.6570    4.1670   -1.5060 n         1 MOL     -0.117742
     42 C13        -4.6990    3.7180   -2.3340 c3        1 MOL     -0.085632
     43 C14        -5.9040    3.1770   -1.5640 c         1 MOL      0.433946
     44 O6         -7.0440    3.4550   -1.9260 o         1 MOL     -0.559909
     45 C15        -4.2560    2.6140   -3.4080 c3        1 MOL     -0.234601
     46 C16        -3.2880    1.6190   -2.8800 c         1 MOL      0.757917
     47 O7         -3.7270    0.5340   -2.4150 o         1 MOL     -0.757848
     48 O8         -2.0440    1.8870   -2.6720 o         1 MOL     -0.757848
     49 H21        -2.8460    3.5690   -1.4600 hn        1 MOL      0.152161
     50 H22        -5.0470    4.6020   -2.8790 h1        1 MOL      0.110229
     51 H23        -3.8230    3.1030   -4.2820 hc        1 MOL      0.075597
     52 H24        -5.0500    2.0510   -3.9040 hc        1 MOL      0.075597
     53 N5         -5.7220    2.5710   -0.4080 n         1 MOL     -0.011945
     54 C17        -6.7230    2.1530    0.5670 c3        1 MOL     -0.350993
     55 C18        -7.1080    0.6310    0.4720 c         1 MOL      0.628086
     56 O9         -8.0430    0.1350    1.0520 o         1 MOL     -0.583120
     57 H25        -4.7620    2.5150   -0.1090 hn        1 MOL      0.189765
     58 H26        -7.5500    2.8600    0.4180 h1        1 MOL      0.153354
     59 H27        -6.1770    2.3950    1.4800 h1        1 MOL      0.153354
     60 N6         -6.3420   -0.1900   -0.2270 n         1 MOL     -0.288961
     61 C19        -6.5980   -1.6190   -0.5740 c3        1 MOL      0.086509
     62 C20        -6.2590   -2.6210    0.6560 c         1 MOL      0.295487
     63 O10        -6.5450   -3.8200    0.5190 o         1 MOL     -0.472703
     64 C21        -5.8720   -2.0180   -1.8490 c3        1 MOL     -0.375692
     65 C22        -4.3660   -2.1610   -1.7910 c         1 MOL      0.837122
     66 N7         -3.6960   -2.4280   -2.8360 n         1 MOL     -0.621591
     67 O11        -3.6890   -2.0750   -0.7970 o         1 MOL     -0.610955
     68 H28        -5.5140    0.2130   -0.6390 hn        1 MOL      0.104920
     69 H29        -7.6650   -1.7820   -0.7300 h1        1 MOL      0.098935
     70 H30        -5.9630   -1.2250   -2.5870 hc        1 MOL      0.119044
     71 H31        -6.2720   -2.9940   -2.1240 hc        1 MOL      0.119044
     72 H32        -4.1870   -2.5130   -3.7130 hn        1 MOL      0.265643
     73 H33        -2.7600   -2.7970   -2.7340 hn        1 MOL      0.265643
     74 N8         -5.6750   -2.1910    1.7660 n         1 MOL     -0.126512
     75 C23        -5.4060   -2.9660    2.9540 c3        1 MOL     -0.219097
     76 C24        -3.9890   -3.5430    3.1360 c         1 MOL      0.473769
     77 O12        -3.6510   -4.0560    4.1780 o         1 MOL     -0.573717
     78 H34        -5.3320   -1.2390    1.8070 hn        1 MOL      0.259874
     79 H35        -6.0840   -3.8240    3.0110 h1        1 MOL      0.121231
     80 H36        -5.6090   -2.2970    3.7950 h1        1 MOL      0.121231
     81 N9         -3.0450   -3.4100    2.1650 n         1 MOL     -0.020055
     82 C25        -1.6010   -3.7900    2.2620 c3        1 MOL     -0.016614
     83 C26        -0.6980   -2.7770    1.5750 c         1 MOL      0.301420
     84 O13        -1.0740   -1.7520    0.9340 o         1 MOL     -0.547129
     85 C27        -1.3840   -5.2020    1.7370 c3        1 MOL     -0.006091
     86 C28        -1.9860   -5.5760    0.4130 ca        1 MOL      0.027532
     87 C29        -3.4010   -5.6710    0.2740 ca        1 MOL     -0.154118
     88 C30        -1.1190   -5.6370   -0.7260 ca        1 MOL     -0.154118
     89 C31        -3.9530   -5.9000   -1.0200 ca        1 MOL     -0.279600
     90 C32        -1.7400   -5.8620   -2.0150 ca        1 MOL     -0.279600
     91 C33        -3.1680   -5.9920   -2.2200 ca        1 MOL      0.356568
     92 O14        -3.6700   -6.1510   -3.5000 oh        1 MOL     -0.484746
     93 H37        -3.3720   -2.8920    1.3660 hn        1 MOL      0.181087
     94 H38        -1.2650   -3.8330    3.3000 h1        1 MOL      0.064256
     95 H39        -1.7340   -5.9340    2.4530 hc        1 MOL      0.033219
     96 H40        -0.3380   -5.4820    1.6620 hc        1 MOL      0.033219
     97 H41        -4.0330   -5.6460    1.1610 ha        1 MOL      0.138291
     98 H42        -0.0490   -5.5830   -0.6130 ha        1 MOL      0.138291
     99 H43        -5.0330   -5.9360   -1.0890 ha        1 MOL      0.124017
    100 H44        -1.1650   -5.8270   -2.9280 ha        1 MOL      0.124017
    101 H45        -3.0500   -6.2180   -4.2290 ho        1 MOL      0.346213
    102 N10         0.6080   -2.9740    1.8430 n         1 MOL     -0.104624
    103 C34         1.8010   -2.2370    1.4080 c3        1 MOL     -0.105401
    104 C35         2.8900   -3.1890    0.9210 c         1 MOL      0.423522
    105 O15         3.1620   -4.1690    1.6430 o         1 MOL     -0.506713
    106 C36         2.2820   -1.2300    2.4490 c3        1 MOL      0.005164
    107 C37         2.6430   -1.8030    3.8620 c3        1 MOL      0.104741
    108 C38         1.2410   -0.1140    2.6160 c3        1 MOL     -1.321610
    109 C39         3.3960   -0.8300    4.7660 c3        1 MOL     -0.171333
    110 H46         0.7860   -3.7550    2.4630 hn        1 MOL      0.202451
    111 H47         1.4410   -1.6420    0.5710 h1        1 MOL     -0.006407
    112 H48         3.1950   -0.8250    2.0000 hc        1 MOL      0.063086
    113 H49         3.2230   -2.7200    3.7880 hc        1 MOL      0.025221
    114 H50         1.7420   -2.0870    4.3850 hc        1 MOL      0.025221
    115 H51         0.9830    0.2910    1.6350 hc        1 MOL      0.403766
    116 H52         0.3470   -0.5500    3.0700 hc        1 MOL      0.403766
    117 H53         1.6140    0.7280    3.1920 hc        1 MOL      0.403766
    118 H54         4.4000   -0.8510    4.3230 hc        1 MOL      0.040053
    119 H55         2.9830    0.1790    4.7840 hc        1 MOL      0.040053
    120 H56         3.5680   -1.3240    5.7200 hc        1 MOL      0.040053
    121 N11         3.5300   -2.8490   -0.2000 n         1 MOL     -0.279129
    122 C40         4.8540   -3.3640   -0.5600 c3        1 MOL      0.034368
    123 C41         6.0000   -2.6760    0.1500 c         1 MOL      0.501667
    124 O16         5.7230   -1.7170    0.9120 o         1 MOL     -0.410263
    125 C42         5.1090   -3.2710   -2.0940 c3        1 MOL     -0.286281
    126 O17         5.1110   -1.9090   -2.5580 oh        1 MOL     -0.571987
    127 H57         3.0620   -2.1190   -0.7310 hn        1 MOL      0.253512
    128 H58         4.8500   -4.4080   -0.2690 h1        1 MOL      0.066966
    129 H59         4.2340   -3.7460   -2.5230 h1        1 MOL      0.158686
    130 H60         6.0460   -3.7840   -2.3300 h1        1 MOL      0.158686
    131 H61         4.2680   -1.7940   -2.9990 ho        1 MOL      0.431986
    132 N12         7.2640   -3.0400   -0.1290 n         1 MOL     -0.532429
    133 C43         8.4590   -2.3100    0.2430 c3        1 MOL      0.215153
    134 C44         8.3770   -0.8960   -0.4470 c         1 MOL      0.413253
    135 O18         8.8010    0.0500    0.1430 o         1 MOL     -0.472379
    136 C45         9.6520   -3.1040   -0.2740 c3        1 MOL     -0.213425
    137 H62         7.4600   -3.7640   -0.8060 hn        1 MOL      0.291295
    138 H63         8.4740   -2.1320    1.3090 h1        1 MOL      0.061430
    139 H64        10.5030   -2.5000    0.0640 hc        1 MOL      0.067708
    140 H65         9.7700   -4.0830    0.1930 hc        1 MOL      0.067708
    141 H66         9.6890   -3.1880   -1.3660 hc        1 MOL      0.067708
    142 N13         7.8530   -0.8220   -1.7380 n         1 MOL     -0.419368
    143 C46         7.9460    0.4260   -2.4660 c3        1 MOL      0.112217
    144 C47         7.0880    1.4640   -1.7650 c         1 MOL      0.343545
    145 O19         7.4190    2.6770   -1.7000 o         1 MOL     -0.518921
    146 C48         7.5720    0.1280   -3.9030 c3        1 MOL     -0.234767
    147 H67         7.4910   -1.6990   -2.0890 hn        1 MOL      0.289665
    148 H68         8.9330    0.8890   -2.4820 h1        1 MOL      0.081425
    149 H69         7.9170    0.8930   -4.6000 hc        1 MOL      0.060688
    150 H70         8.0630   -0.8210   -4.1370 hc        1 MOL      0.060688
    151 H71         6.4960    0.0550   -4.0540 hc        1 MOL      0.060688
    152 N14         6.0090    0.9840   -1.1570 n         1 MOL     -0.053644
    153 C49         5.0260    1.8340   -0.4070 c3        1 MOL     -0.426419
    154 C50         5.6360    2.3290    0.8580 c         1 MOL      0.624526
    155 O20         5.6080    3.5440    1.1860 o         1 MOL     -0.597081
    156 C51         3.6940    1.0980   -0.3230 c3        1 MOL     -0.071598
    157 C52         3.1020    0.8770   -1.7070 c3        1 MOL     -0.180407
    158 C53         1.7730    0.0880   -1.5130 c         1 MOL      0.791349
    159 O21         0.7270    0.6750   -1.1870 o         1 MOL     -0.733601
    160 O22         1.8020   -1.1530   -1.6410 o         1 MOL     -0.733601
    161 H72         5.8130   -0.0080   -1.2600 hn        1 MOL      0.382712
    162 H73         4.8680    2.7260   -1.0130 h1        1 MOL      0.151554
    163 H74         3.0530    1.8260    0.1660 hc        1 MOL      0.166923
    164 H75         3.8580    0.1330    0.1600 hc        1 MOL      0.166923
    165 H76         3.8540    0.3160   -2.2610 hc        1 MOL      0.018800
    166 H77         2.7750    1.7630   -2.2480 hc        1 MOL      0.018800
    167 N15         6.1010    1.4320    1.7100 n         1 MOL     -0.211229
    168 C54         6.8500    1.6400    2.9790 c3        1 MOL     -0.279269
    169 H78         7.9210    1.6150    2.7770 h1        1 MOL      0.119761
    170 H79         6.5840    2.6080    3.4040 h1        1 MOL      0.119761
    171 H80         6.5950    0.8500    3.6850 h1        1 MOL      0.119761
    172 H81         6.0490    0.4940    1.3310 hn        1 MOL      0.151530
    173 Ca1        -1.5710   -0.5080   -1.3210 Ca        1 MOL      1.752742
    174 O23        -0.2250   -2.8840   -1.8900 oh        1 MOL     -0.841679
    175 H82        -0.1050   -3.3410   -2.7240 ho        1 MOL      0.405325
    176 H83         0.6530   -2.5650   -1.6730 ho        1 MOL      0.405325
    177 O24        -0.9520   -0.7720   -4.1060 oh        1 MOL     -0.841679
    178 H84        -1.6200   -0.7170   -4.7930 ho        1 MOL      0.405325
    179 H85        -0.1940   -1.1400   -4.5510 ho        1 MOL      0.405325
@<TRIPOS>BOND
     1    1    2 1   
     2    1    4 1   
     3    1    5 1   
     4    1    6 1   
     5    2    3 2   
     6    2    7 1   
     7    7    8 1   
     8    7   15 1   
     9    8    9 1   
    10    8   11 1   
    11    8   16 1   
    12    9   10 2   
    13    9   19 1   
    14   11   12 1   
    15   11   17 1   
    16   11   18 1   
    17   12   13 1   
    18   12   14 1   
    19   19   20 1   
    20   19   28 1   
    21   20   21 1   
    22   20   23 1   
    23   20   29 1   
    24   21   22 2   
    25   21   41 1   
    26   23   24 1   
    27   23   30 1   
    28   23   31 1   
    29   24   25 1   
    30   24   32 1   
    31   24   33 1   
    32   25   26 1   
    33   25   34 1   
    34   25   35 1   
    35   26   27 1   
    36   26   36 1   
    37   26   37 1   
    38   27   38 1   
    39   27   39 1   
    40   27   40 1   
    41   41   42 1   
    42   41   49 1   
    43   42   43 1   
    44   42   45 1   
    45   42   50 1   
    46   43   44 2   
    47   43   53 1   
    48   45   46 1   
    49   45   51 1   
    50   45   52 1   
    51   46   47 1   
    52   46   48 1   
    53   53   54 1   
    54   53   57 1   
    55   54   55 1   
    56   54   58 1   
    57   54   59 1   
    58   55   56 2   
    59   55   60 1   
    60   60   61 1   
    61   60   68 1   
    62   61   62 1   
    63   61   64 1   
    64   61   69 1   
    65   62   63 2   
    66   62   74 1   
    67   64   65 1   
    68   64   70 1   
    69   64   71 1   
    70   65   66 1   
    71   65   67 2   
    72   66   72 1   
    73   66   73 1   
    74   74   75 1   
    75   74   78 1   
    76   75   76 1   
    77   75   79 1   
    78   75   80 1   
    79   76   77 2   
    80   76   81 1   
    81   81   82 1   
    82   81   93 1   
    83   82   83 1   
    84   82   85 1   
    85   82   94 1   
    86   83   84 2   
    87   83  102 1   
    88   85   86 1   
    89   85   95 1   
    90   85   96 1   
    91   86   87 ar  
    92   86   88 ar  
    93   87   89 ar  
    94   87   97 1   
    95   88   90 ar  
    96   88   98 1   
    97   89   91 ar  
    98   89   99 1   
    99   90   91 ar  
   100   90  100 1   
   101   91   92 1   
   102   92  101 1   
   103  102  103 1   
   104  102  110 1   
   105  103  104 1   
   106  103  106 1   
   107  103  111 1   
   108  104  105 2   
   109  104  121 1   
   110  106  107 1   
   111  106  108 1   
   112  106  112 1   
   113  107  109 1   
   114  107  113 1   
   115  107  114 1   
   116  108  115 1   
   117  108  116 1   
   118  108  117 1   
   119  109  118 1   
   120  109  119 1   
   121  109  120 1   
   122  121  122 1   
   123  121  127 1   
   124  122  123 1   
   125  122  125 1   
   126  122  128 1   
   127  123  124 2   
   128  123  132 1   
   129  125  126 1   
   130  125  129 1   
   131  125  130 1   
   132  126  131 1   
   133  132  133 1   
   134  132  137 1   
   135  133  134 1   
   136  133  136 1   
   137  133  138 1   
   138  134  135 2   
   139  134  142 1   
   140  136  139 1   
   141  136  140 1   
   142  136  141 1   
   143  142  143 1   
   144  142  147 1   
   145  143  144 1   
   146  143  146 1   
   147  143  148 1   
   148  144  145 2   
   149  144  152 1   
   150  146  149 1   
   151  146  150 1   
   152  146  151 1   
   153  152  153 1   
   154  152  161 1   
   155  153  154 1   
   156  153  156 1   
   157  153  162 1   
   158  154  155 2   
   159  154  167 1   
   160  156  157 1   
   161  156  163 1   
   162  156  164 1   
   163  157  158 1   
   164  157  165 1   
   165  157  166 1   
   166  158  159 1   
   167  158  160 1   
   168  167  168 1   
   169  167  172 1   
   170  168  169 1   
   171  168  170 1   
   172  168  171 1   
   173  174  175 1   
   174  174  176 1   
   175  177  178 1   
   176  177  179 1   
@<TRIPOS>SUBSTRUCTURE
     1 MOL         1 TEMP              0 ****  ****    0 ROOT
