@<TRIPOS>MOLECULE
MOL
  179   176     1     0     0
SMALL
resp


@<TRIPOS>ATOM
      1 C1         -0.7460    4.6900    5.2970 c3        1 MOL     -0.327003
      2 C2         -1.1680    4.1650    3.9320 c         1 MOL      0.666990
      3 O1         -0.7240    4.7450    2.9110 o         1 MOL     -0.605232
      4 H1         -1.6110    4.7160    5.9590 hc        1 MOL      0.086276
      5 H2          0.0160    4.0350    5.7200 hc        1 MOL      0.086276
      6 H3         -0.3400    5.6960    5.1900 hc        1 MOL      0.086276
      7 N1         -2.0720    3.1650    3.8350 n         1 MOL     -0.519343
      8 C3         -2.4420    2.5230    2.5140 c3        1 MOL      0.052377
      9 C4         -3.5320    3.4210    1.7230 c         1 MOL      0.436536
     10 O2         -4.7130    3.3110    1.9120 o         1 MOL     -0.469290
     11 C5         -2.9290    1.1690    2.8410 c3        1 MOL     -0.008986
     12 C6         -3.3000    0.4030    1.6190 c         1 MOL      0.599691
     13 O3         -2.6220    0.5830    0.5780 o         1 MOL     -0.695759
     14 O4         -4.2920   -0.3640    1.7640 o         1 MOL     -0.695759
     15 H4         -2.4900    2.7970    4.6840 hn        1 MOL      0.299638
     16 H5         -1.6350    2.4120    1.7860 h1        1 MOL      0.089765
     17 H6         -3.7350    1.1320    3.5640 hc        1 MOL      0.018261
     18 H7         -2.1260    0.6510    3.3610 hc        1 MOL      0.018261
     19 N2         -3.0150    4.3600    0.9060 n         1 MOL     -0.348072
     20 C7         -3.7630    5.4280    0.2690 c3        1 MOL      0.009520
     21 C8         -4.8180    4.9250   -0.7940 c         1 MOL      0.446980
     22 O5         -5.8530    5.5590   -0.9010 o         1 MOL     -0.551740
     23 C9         -2.7970    6.5440   -0.2910 c3        1 MOL     -0.199602
     24 C10        -3.5780    7.8290   -0.5200 c3        1 MOL      0.054500
     25 C11        -2.8770    9.0820   -0.8040 c3        1 MOL     -0.067071
     26 C12        -1.7860    9.6620    0.2140 c3        1 MOL      0.051211
     27 N3         -0.6450   10.2840   -0.4420 n4        1 MOL     -0.488557
     28 H8         -2.0210    4.5240    0.9290 hn        1 MOL      0.312263
     29 H9         -4.4090    5.9470    0.9770 h1        1 MOL      0.075512
     30 H10        -2.4100    6.0770   -1.1970 hc        1 MOL      0.069882
     31 H11        -1.9630    6.7900    0.3570 hc        1 MOL      0.069882
     32 H12        -4.1310    8.0820    0.3850 hc        1 MOL      0.048622
     33 H13        -4.2640    7.7530   -1.3540 hc        1 MOL      0.048622
     34 H14        -3.6450    9.8380   -0.9480 hc        1 MOL      0.033291
     35 H15        -2.3970    9.0470   -1.7820 hc        1 MOL      0.033291
     36 H16        -1.4140    8.8800    0.8800 hx        1 MOL      0.090895
     37 H17        -2.3080   10.2700    0.9430 hx        1 MOL      0.090895
     38 H18        -0.8350   11.2600   -0.5870 hn        1 MOL      0.366351
     39 H19         0.1740   10.3300    0.1360 hn        1 MOL      0.366351
     40 H20        -0.4680    9.8190   -1.3210 hn        1 MOL      0.366351
     41 N4         -4.5300    3.7240   -1.3460 n         1 MOL     -0.209499
     42 C13        -5.3110    3.0000   -2.4120 c3        1 MOL     -0.018278
     43 C14        -6.1980    1.8280   -1.8940 c         1 MOL      0.477628
     44 O6         -6.9570    1.2070   -2.6590 o         1 MOL     -0.513667
     45 C15        -4.3710    2.3750   -3.4670 c3        1 MOL     -0.239259
     46 C16        -3.2410    1.5690   -2.8410 c         1 MOL      0.750597
     47 O7         -3.3110    0.3230   -2.8760 o         1 MOL     -0.729009
     48 O8         -2.2680    2.0820   -2.2450 o         1 MOL     -0.729009
     49 H21        -3.6870    3.3490   -0.9450 hn        1 MOL      0.130914
     50 H22        -6.0040    3.7270   -2.8380 h1        1 MOL      0.111093
     51 H23        -3.9410    3.1040   -4.1580 hc        1 MOL      0.066199
     52 H24        -5.0630    1.7270   -4.0170 hc        1 MOL      0.066199
     53 N5         -6.0580    1.4880   -0.5490 n         1 MOL     -0.297194
     54 C17        -7.0930    0.6190    0.1230 c3        1 MOL     -0.251324
     55 C18        -6.9000   -0.8720   -0.0900 c         1 MOL      0.569471
     56 O9         -7.6870   -1.6870    0.3170 o         1 MOL     -0.575155
     57 H25        -5.3060    1.9210   -0.0260 hn        1 MOL      0.270068
     58 H26        -8.0830    0.8050   -0.2970 h1        1 MOL      0.142572
     59 H27        -7.1440    0.8420    1.1890 h1        1 MOL      0.142572
     60 N6         -5.9060   -1.2720   -0.9030 n         1 MOL     -0.195144
     61 C19        -5.6470   -2.6370   -1.3990 c3        1 MOL      0.000776
     62 C20        -5.4130   -3.7150   -0.3000 c         1 MOL      0.323737
     63 O10        -5.5820   -4.9420   -0.6090 o         1 MOL     -0.503224
     64 C21        -4.6860   -2.7380   -2.5510 c3        1 MOL     -0.194655
     65 C22        -3.2330   -2.6110   -2.1840 c         1 MOL      0.590032
     66 N7         -2.3180   -2.9370   -3.0540 n         1 MOL     -0.712322
     67 O11        -2.8100   -2.1980   -1.0930 o         1 MOL     -0.530988
     68 H28        -5.3080   -0.5320   -1.2330 hn        1 MOL      0.162459
     69 H29        -6.5970   -2.9620   -1.8260 h1        1 MOL      0.096376
     70 H30        -4.8920   -1.9040   -3.2340 hc        1 MOL      0.090272
     71 H31        -4.8330   -3.6510   -3.1210 hc        1 MOL      0.090272
     72 H32        -2.7070   -3.5860   -3.7280 hn        1 MOL      0.348563
     73 H33        -1.4230   -2.8880   -2.6020 hn        1 MOL      0.348563
     74 N8         -4.9770   -3.3980    0.9000 n         1 MOL     -0.146801
     75 C23        -4.5300   -4.2890    1.9420 c3        1 MOL     -0.210913
     76 C24        -3.0410   -4.4580    2.0940 c         1 MOL      0.657583
     77 O12        -2.6200   -5.3030    2.9010 o         1 MOL     -0.597422
     78 H34        -4.6910   -2.4470    1.0490 hn        1 MOL      0.256981
     79 H35        -4.9790   -5.2830    1.8610 h1        1 MOL      0.124482
     80 H36        -4.9320   -3.9180    2.8790 h1        1 MOL      0.124482
     81 N9         -2.1930   -3.7550    1.3580 n         1 MOL     -0.653700
     82 C25        -0.8060   -4.0790    1.2590 c3        1 MOL      0.512903
     83 C26         0.1310   -2.8820    1.0630 c         1 MOL      0.390233
     84 O13        -0.1740   -1.8160    0.5630 o         1 MOL     -0.678893
     85 C27        -0.5970   -5.0910    0.1180 c3        1 MOL     -0.008325
     86 C28        -1.4240   -6.3140    0.1420 ca        1 MOL     -0.097176
     87 C29        -2.6120   -6.4370   -0.5980 ca        1 MOL     -0.111253
     88 C30        -1.0050   -7.3990    0.9330 ca        1 MOL     -0.111253
     89 C31        -3.3270   -7.6010   -0.5460 ca        1 MOL     -0.232081
     90 C32        -1.7400   -8.6150    1.0620 ca        1 MOL     -0.232081
     91 C33        -2.8790   -8.7380    0.2080 ca        1 MOL      0.318456
     92 O14        -3.4650   -9.9430    0.0440 oh        1 MOL     -0.462392
     93 H37        -2.4980   -3.1000    0.6430 hn        1 MOL      0.348803
     94 H38        -0.4460   -4.5470    2.1810 h1        1 MOL     -0.017354
     95 H39         0.4630   -5.3130    0.1860 hc        1 MOL     -0.006118
     96 H40        -0.8450   -4.5870   -0.8180 hc        1 MOL     -0.006118
     97 H41        -2.8160   -5.6060   -1.2510 ha        1 MOL      0.103578
     98 H42        -0.0310   -7.3550    1.3990 ha        1 MOL      0.103578
     99 H43        -4.1810   -7.7330   -1.1910 ha        1 MOL      0.139804
    100 H44        -1.2540   -9.3890    1.6390 ha        1 MOL      0.139804
    101 H45        -3.0280  -10.5650    0.6410 ho        1 MOL      0.346815
    102 N10         1.3290   -3.0540    1.5090 n         1 MOL     -0.527511
    103 C34         2.4060   -1.9740    1.4000 c3        1 MOL      0.028179
    104 C35         3.7150   -2.6620    1.0170 c         1 MOL      0.493097
    105 O15         4.2870   -3.5440    1.7070 o         1 MOL     -0.547222
    106 C36         2.5540   -1.0620    2.6960 c3        1 MOL      0.057634
    107 C37         1.2340   -0.2620    2.9000 c3        1 MOL      0.153917
    108 C38         3.6680    0.0510    2.6280 c3        1 MOL     -0.386165
    109 C39         1.0420    0.4430    4.2600 c3        1 MOL     -0.175609
    110 H46         1.4380   -3.7860    2.2000 hn        1 MOL      0.310532
    111 H47         2.1990   -1.2960    0.5800 h1        1 MOL      0.138370
    112 H48         2.6640   -1.7460    3.5330 hc        1 MOL      0.030918
    113 H49         0.3650   -0.9180    2.8660 hc        1 MOL      0.025965
    114 H50         0.9700    0.3870    2.0610 hc        1 MOL      0.025965
    115 H51         4.6430   -0.3510    2.3510 hc        1 MOL      0.095484
    116 H52         3.4280    0.8620    1.9450 hc        1 MOL      0.095484
    117 H53         3.7230    0.5600    3.5960 hc        1 MOL      0.095484
    118 H54         1.8740    1.1120    4.4790 hc        1 MOL      0.029346
    119 H55         0.1290    1.0400    4.3410 hc        1 MOL      0.029346
    120 H56         0.9660   -0.3670    4.9860 hc        1 MOL      0.029346
    121 N11         4.4380   -2.1870    0.0340 n         1 MOL     -0.301798
    122 C40         5.6740   -2.6280   -0.4890 c3        1 MOL      0.085678
    123 C41         6.8760   -2.0170    0.2210 c         1 MOL      0.459355
    124 O16         6.7350   -1.0510    0.9690 o         1 MOL     -0.394675
    125 C42         5.6840   -2.3660   -1.9740 c3        1 MOL     -0.219819
    126 O17         5.6810   -0.9780   -2.1700 oh        1 MOL     -0.339030
    127 H57         4.2220   -1.2630   -0.3050 hn        1 MOL      0.210104
    128 H58         5.8240   -3.7010   -0.3820 h1        1 MOL      0.063892
    129 H59         4.7350   -2.6910   -2.4010 h1        1 MOL      0.103976
    130 H60         6.5460   -2.8760   -2.4160 h1        1 MOL      0.103976
    131 H61         5.6890   -0.9090   -3.1220 ho        1 MOL      0.372576
    132 N12         8.0230   -2.3070   -0.3500 n         1 MOL     -0.415322
    133 C43         9.2840   -1.6950   -0.0180 c3        1 MOL      0.083752
    134 C44         9.2740   -0.2330   -0.5580 c         1 MOL      0.435236
    135 O18         9.7400    0.6580    0.0860 o         1 MOL     -0.495410
    136 C45        10.3830   -2.5500   -0.5940 c3        1 MOL     -0.141705
    137 H62         8.0890   -3.0730   -1.0110 hn        1 MOL      0.275355
    138 H63         9.3560   -1.7460    1.0710 h1        1 MOL      0.099395
    139 H64        10.3340   -3.5850   -0.2660 hc        1 MOL      0.052559
    140 H65        10.3300   -2.5830   -1.6830 hc        1 MOL      0.052559
    141 H66        11.3600   -2.2070   -0.2590 hc        1 MOL      0.052559
    142 N13         8.7210    0.0960   -1.7220 n         1 MOL     -0.348977
    143 C46         8.6070    1.3950   -2.2520 c3        1 MOL      0.188656
    144 C47         7.5990    2.2850   -1.5670 c         1 MOL      0.297243
    145 O19         7.9010    3.4570   -1.2240 o         1 MOL     -0.503633
    146 C48         8.3270    1.3670   -3.7460 c3        1 MOL     -0.321824
    147 H67         8.3380   -0.6010   -2.3510 hn        1 MOL      0.235319
    148 H68         9.5480    1.9130   -2.1070 h1        1 MOL      0.079298
    149 H69         9.2440    1.1490   -4.3020 hc        1 MOL      0.084358
    150 H70         7.5800    0.5940   -3.9630 hc        1 MOL      0.084358
    151 H71         7.9200    2.3290   -4.0570 hc        1 MOL      0.084358
    152 N14         6.4510    1.6830   -1.3020 n         1 MOL      0.007679
    153 C49         5.3960    2.3980   -0.6020 c3        1 MOL     -0.146071
    154 C50         5.7890    2.5940    0.9010 c         1 MOL      0.462004
    155 O20         5.4950    3.6810    1.3910 o         1 MOL     -0.544194
    156 C51         4.0450    1.6870   -0.7870 c3        1 MOL      0.010666
    157 C52         2.7110    2.3750   -0.5430 c3        1 MOL     -0.109193
    158 C53         1.4270    1.5670   -0.8540 c         1 MOL      0.684885
    159 O21         1.4830    0.3860   -1.3660 o         1 MOL     -0.773841
    160 O22         0.3210    1.9870   -0.4130 o         1 MOL     -0.773841
    161 H72         6.3050    0.7170   -1.5850 hn        1 MOL     -0.046117
    162 H73         5.3240    3.3740   -1.0890 h1        1 MOL      0.109823
    163 H74         4.1260    0.7550   -0.2360 hc        1 MOL     -0.006121
    164 H75         3.8620    1.3640   -1.8160 hc        1 MOL     -0.006121
    165 H76         2.7020    3.3480   -1.0450 hc        1 MOL      0.056028
    166 H77         2.5880    2.7060    0.4790 hc        1 MOL      0.056028
    167 N15         6.4460    1.6200    1.6260 n         1 MOL      0.024031
    168 C54         7.0220    1.9810    2.9320 c3        1 MOL     -0.260629
    169 H78         7.3290    1.0750    3.4550 h1        1 MOL      0.092831
    170 H79         7.8880    2.6250    2.7820 h1        1 MOL      0.092831
    171 H80         6.2750    2.5070    3.5260 h1        1 MOL      0.092831
    172 H81         6.7490    0.7800    1.1620 hn        1 MOL      0.095103
    173 Ca1        -1.1220   -0.0470   -1.3160 Ca        1 MOL      1.800271
    174 O23        -0.6900   -0.0300   -3.9590 oh        1 MOL     -0.830730
    175 H82        -0.4110    0.7470   -4.4420 ho        1 MOL      0.411009
    176 H83        -0.6250   -0.7430   -4.5830 ho        1 MOL      0.411009
    177 O24         0.4740   -2.4710   -2.3780 oh        1 MOL     -0.830730
    178 H84         1.0710   -3.0180   -1.8760 ho        1 MOL      0.411009
    179 H85         0.9740   -2.2200   -3.1560 ho        1 MOL      0.411009
@<TRIPOS>BOND
     1    1    2 1   
     2    1    4 1   
     3    1    5 1   
     4    1    6 1   
     5    2    3 2   
     6    2    7 1   
     7    7    8 1   
     8    7   15 1   
     9    8    9 1   
    10    8   11 1   
    11    8   16 1   
    12    9   10 2   
    13    9   19 1   
    14   11   12 1   
    15   11   17 1   
    16   11   18 1   
    17   12   13 1   
    18   12   14 1   
    19   19   20 1   
    20   19   28 1   
    21   20   21 1   
    22   20   23 1   
    23   20   29 1   
    24   21   22 2   
    25   21   41 1   
    26   23   24 1   
    27   23   30 1   
    28   23   31 1   
    29   24   25 1   
    30   24   32 1   
    31   24   33 1   
    32   25   26 1   
    33   25   34 1   
    34   25   35 1   
    35   26   27 1   
    36   26   36 1   
    37   26   37 1   
    38   27   38 1   
    39   27   39 1   
    40   27   40 1   
    41   41   42 1   
    42   41   49 1   
    43   42   43 1   
    44   42   45 1   
    45   42   50 1   
    46   43   44 2   
    47   43   53 1   
    48   45   46 1   
    49   45   51 1   
    50   45   52 1   
    51   46   47 1   
    52   46   48 1   
    53   53   54 1   
    54   53   57 1   
    55   54   55 1   
    56   54   58 1   
    57   54   59 1   
    58   55   56 2   
    59   55   60 1   
    60   60   61 1   
    61   60   68 1   
    62   61   62 1   
    63   61   64 1   
    64   61   69 1   
    65   62   63 2   
    66   62   74 1   
    67   64   65 1   
    68   64   70 1   
    69   64   71 1   
    70   65   66 1   
    71   65   67 2   
    72   66   72 1   
    73   66   73 1   
    74   74   75 1   
    75   74   78 1   
    76   75   76 1   
    77   75   79 1   
    78   75   80 1   
    79   76   77 2   
    80   76   81 1   
    81   81   82 1   
    82   81   93 1   
    83   82   83 1   
    84   82   85 1   
    85   82   94 1   
    86   83   84 2   
    87   83  102 1   
    88   85   86 1   
    89   85   95 1   
    90   85   96 1   
    91   86   87 ar  
    92   86   88 ar  
    93   87   89 ar  
    94   87   97 1   
    95   88   90 ar  
    96   88   98 1   
    97   89   91 ar  
    98   89   99 1   
    99   90   91 ar  
   100   90  100 1   
   101   91   92 1   
   102   92  101 1   
   103  102  103 1   
   104  102  110 1   
   105  103  104 1   
   106  103  106 1   
   107  103  111 1   
   108  104  105 2   
   109  104  121 1   
   110  106  107 1   
   111  106  108 1   
   112  106  112 1   
   113  107  109 1   
   114  107  113 1   
   115  107  114 1   
   116  108  115 1   
   117  108  116 1   
   118  108  117 1   
   119  109  118 1   
   120  109  119 1   
   121  109  120 1   
   122  121  122 1   
   123  121  127 1   
   124  122  123 1   
   125  122  125 1   
   126  122  128 1   
   127  123  124 2   
   128  123  132 1   
   129  125  126 1   
   130  125  129 1   
   131  125  130 1   
   132  126  131 1   
   133  132  133 1   
   134  132  137 1   
   135  133  134 1   
   136  133  136 1   
   137  133  138 1   
   138  134  135 2   
   139  134  142 1   
   140  136  139 1   
   141  136  140 1   
   142  136  141 1   
   143  142  143 1   
   144  142  147 1   
   145  143  144 1   
   146  143  146 1   
   147  143  148 1   
   148  144  145 2   
   149  144  152 1   
   150  146  149 1   
   151  146  150 1   
   152  146  151 1   
   153  152  153 1   
   154  152  161 1   
   155  153  154 1   
   156  153  156 1   
   157  153  162 1   
   158  154  155 2   
   159  154  167 1   
   160  156  157 1   
   161  156  163 1   
   162  156  164 1   
   163  157  158 1   
   164  157  165 1   
   165  157  166 1   
   166  158  159 1   
   167  158  160 1   
   168  167  168 1   
   169  167  172 1   
   170  168  169 1   
   171  168  170 1   
   172  168  171 1   
   173  174  175 1   
   174  174  176 1   
   175  177  178 1   
   176  177  179 1   
@<TRIPOS>SUBSTRUCTURE
     1 MOL         1 TEMP              0 ****  ****    0 ROOT
