@<TRIPOS>MOLECULE
MOL
  189   185     1     0     0
SMALL
resp


@<TRIPOS>ATOM
      1 C1         -1.6100    2.9560    6.6460 c3        1 MOL     -0.363710
      2 C2         -1.4220    2.5980    5.1720 c         1 MOL      0.751998
      3 O1         -0.4900    3.0570    4.5300 o         1 MOL     -0.611371
      4 H1         -1.1810    2.1700    7.2680 hc        1 MOL      0.087930
      5 H2         -1.1090    3.9000    6.8580 hc        1 MOL      0.087930
      6 H3         -2.6740    3.0520    6.8660 hc        1 MOL      0.087930
      7 N1         -2.2830    1.7200    4.6070 n         1 MOL     -0.620830
      8 C3         -2.3850    1.4850    3.1370 c3        1 MOL      0.094645
      9 C4         -2.5590    2.8360    2.4460 c         1 MOL      0.721467
     10 O2         -3.3310    3.5910    2.8930 o         1 MOL     -0.583148
     11 C5         -3.6750    0.6110    3.0480 c3        1 MOL     -0.394954
     12 C6         -4.0560    0.2380    1.5600 c         1 MOL      0.928543
     13 O3         -3.3810    0.6050    0.5720 o         1 MOL     -0.698559
     14 O4         -5.0500   -0.4650    1.3700 o         1 MOL     -0.698559
     15 H4         -2.9040    1.3400    5.3080 hn        1 MOL      0.326036
     16 H5         -1.4760    1.0230    2.7650 h1        1 MOL      0.038330
     17 H6         -4.4990    1.0580    3.6020 hc        1 MOL      0.100808
     18 H7         -3.3940   -0.3030    3.5750 hc        1 MOL      0.100808
     19 N2         -1.8450    3.0960    1.3250 n         1 MOL     -0.280550
     20 C7         -1.7680    4.4730    0.6840 c3        1 MOL     -0.025625
     21 C8         -2.9150    4.7620   -0.2320 c         1 MOL      0.614329
     22 O5         -3.3680    5.9010   -0.4050 o         1 MOL     -0.579781
     23 C9         -0.4350    4.4070   -0.1090 c3        1 MOL      0.097845
     24 C10        -0.1130    5.7510   -0.7570 c3        1 MOL     -0.051784
     25 C11         1.2050    6.5000   -0.2730 c3        1 MOL     -0.070594
     26 C12         0.8360    7.1600    1.0690 c3        1 MOL      0.080403
     27 N3          1.7660    8.1670    1.5430 n4        1 MOL     -0.277593
     28 H8         -1.3930    2.2920    0.9040 hn        1 MOL     -0.081574
     29 H9         -1.7370    5.3040    1.4010 h1        1 MOL      0.007890
     30 H10        -0.5140    3.6690   -0.9050 hc        1 MOL      0.019088
     31 H11         0.4220    4.1040    0.4930 hc        1 MOL      0.019088
     32 H12        -0.9240    6.4730   -0.7100 hc        1 MOL      0.031967
     33 H13        -0.0950    5.5800   -1.8290 hc        1 MOL      0.031967
     34 H14         1.3530    7.3460   -0.9360 hc        1 MOL      0.029873
     35 H15         2.1230    5.9210   -0.2120 hc        1 MOL      0.029873
     36 H16         0.7750    6.2610    1.6870 hx        1 MOL      0.080264
     37 H17        -0.1260    7.6610    1.0020 hx        1 MOL      0.080264
     38 H18         2.7440    7.9040    1.5250 hn        1 MOL      0.299119
     39 H19         1.8090    9.0120    1.0020 hn        1 MOL      0.299119
     40 H20         1.5860    8.4670    2.4930 hn        1 MOL      0.299119
     41 N4         -3.4170    3.7140   -0.9360 n         1 MOL     -0.480003
     42 C13        -4.2080    3.9030   -2.1950 c3        1 MOL      0.025688
     43 C14        -5.5340    3.0190   -2.2990 c         1 MOL      0.404835
     44 O6         -6.2890    3.0270   -3.2840 o         1 MOL     -0.473724
     45 C15        -3.2660    3.6070   -3.4050 c3        1 MOL     -0.228925
     46 C16        -2.3570    2.3230   -3.3010 c         1 MOL      0.984432
     47 O7         -1.4470    2.1750   -4.1480 o         1 MOL     -0.810865
     48 O8         -2.4930    1.5830   -2.3580 o         1 MOL     -0.810865
     49 H21        -3.1860    2.7690   -0.6460 hn        1 MOL      0.270748
     50 H22        -4.5300    4.9450   -2.1910 h1        1 MOL      0.104369
     51 H23        -2.6750    4.5220   -3.4290 hc        1 MOL      0.046739
     52 H24        -3.8710    3.6020   -4.3140 hc        1 MOL      0.046739
     53 N5         -5.9000    2.3070   -1.1930 n         1 MOL     -0.066132
     54 C17        -7.1980    1.6170   -0.9200 c3        1 MOL     -0.424072
     55 C18        -7.3370    0.3270   -1.7580 c         1 MOL      0.571998
     56 O9         -7.9550    0.3560   -2.8190 o         1 MOL     -0.515066
     57 H25        -5.2110    2.2130   -0.4510 hn        1 MOL      0.129056
     58 H26        -8.0100    2.3360   -1.0870 h1        1 MOL      0.150057
     59 H27        -7.2280    1.2790    0.1040 h1        1 MOL      0.150057
     60 N6         -6.6540   -0.7420   -1.2680 n         1 MOL     -0.202113
     61 C19        -6.7460   -2.1480   -1.7650 c3        1 MOL     -0.098918
     62 C20        -6.8310   -3.0830   -0.6290 c         1 MOL      0.385467
     63 O10        -7.1200   -4.2310   -0.8140 o         1 MOL     -0.500969
     64 C21        -5.5690   -2.4650   -2.6940 c3        1 MOL      0.157582
     65 C22        -4.2250   -1.9000   -2.3450 c         1 MOL      0.408586
     66 O11        -3.7700   -1.0090   -3.0250 o         1 MOL     -0.597334
     67 O12        -3.7190   -2.2140   -1.2340 o         1 MOL     -0.597334
     68 H28        -6.2270   -0.6030   -0.3650 hn        1 MOL      0.103731
     69 H29        -7.6050   -2.2240   -2.4440 h1        1 MOL      0.084379
     70 H30        -5.8030   -2.1230   -3.7000 hc        1 MOL     -0.014727
     71 H31        -5.3910   -3.5390   -2.7330 hc        1 MOL     -0.014727
     72 N7         -6.3950   -2.7090    0.5900 n         1 MOL     -0.177925
     73 C23        -6.2520   -3.4860    1.7970 c3        1 MOL     -0.131770
     74 C24        -5.0360   -4.3730    1.7660 c         1 MOL      0.543275
     75 O13        -5.0280   -5.4970    2.2810 o         1 MOL     -0.555048
     76 H32        -6.1990   -1.7250    0.7520 hn        1 MOL      0.206447
     77 H33        -7.1700   -4.0720    1.8910 h1        1 MOL      0.079412
     78 H34        -6.1660   -2.7850    2.6280 h1        1 MOL      0.079412
     79 N8         -3.8950   -3.7960    1.2730 n         1 MOL     -0.204370
     80 C25        -2.5280   -4.3700    1.2940 c3        1 MOL     -0.275123
     81 C26        -1.4220   -3.3240    1.3140 c         1 MOL      0.765836
     82 O14        -1.6090   -2.1740    0.8660 o         1 MOL     -0.691693
     83 C27        -2.1900   -5.3500    0.1250 c3        1 MOL      0.614885
     84 C28        -2.9110   -6.6180    0.2580 c3        1 MOL     -0.379225
     85 O15        -2.4890   -4.8780   -1.1580 oh        1 MOL     -0.658308
     86 H35        -3.9550   -2.9100    0.7920 hn        1 MOL      0.125887
     87 H36        -2.4750   -5.0150    2.1770 h1        1 MOL      0.105560
     88 H37        -1.1340   -5.6190    0.2190 h1        1 MOL     -0.086450
     89 H38        -2.6650   -3.9390   -1.0640 ho        1 MOL      0.410064
     90 H39        -2.7870   -7.0360    1.2570 hc        1 MOL      0.092909
     91 H40        -3.9490   -6.3820    0.0590 hc        1 MOL      0.092909
     92 H41        -2.6090   -7.3280   -0.5080 hc        1 MOL      0.092909
     93 N9         -0.2210   -3.7120    1.7840 n         1 MOL     -0.668246
     94 C29         0.8920   -2.9120    2.0250 c3        1 MOL      0.179379
     95 C30         2.1010   -3.4020    1.1870 c         1 MOL      0.590457
     96 O16         2.3680   -4.6020    1.0910 o         1 MOL     -0.574249
     97 C31         1.2890   -2.6900    3.5180 c3        1 MOL      0.091552
     98 C32         0.4150   -1.5420    4.0670 c3        1 MOL      0.036678
     99 C33         2.8580   -2.3680    3.7200 c3        1 MOL     -0.552158
    100 C34         0.4540   -1.3140    5.5890 c3        1 MOL     -0.195687
    101 H42        -0.0430   -4.6870    1.9510 hn        1 MOL      0.311730
    102 H43         0.7560   -1.8930    1.6750 h1        1 MOL     -0.052086
    103 H44         1.0510   -3.6520    3.9600 hc        1 MOL      0.028516
    104 H45        -0.5990   -1.8900    3.8890 hc        1 MOL      0.058469
    105 H46         0.6720   -0.6280    3.5320 hc        1 MOL      0.058469
    106 H47         3.1490   -1.4130    3.2880 hc        1 MOL      0.143109
    107 H48         3.0340   -2.1550    4.7790 hc        1 MOL      0.143109
    108 H49         3.3840   -3.2670    3.3950 hc        1 MOL      0.143109
    109 H50         0.2010   -2.2810    6.0410 hc        1 MOL      0.042993
    110 H51         1.4800   -1.0650    5.8840 hc        1 MOL      0.042993
    111 H52        -0.1910   -0.5260    5.9740 hc        1 MOL      0.042993
    112 N10         2.8530   -2.5340    0.5820 n         1 MOL     -0.311707
    113 C35         4.0290   -2.8370   -0.2150 c3        1 MOL     -0.036452
    114 C36         5.3180   -2.1560    0.1630 c         1 MOL      0.425175
    115 O17         5.3680   -1.1820    0.9330 o         1 MOL     -0.448960
    116 C37         3.7470   -2.4810   -1.7100 c3        1 MOL      0.307582
    117 C38         2.8490   -3.5170   -2.2980 c3        1 MOL     -0.396398
    118 O18         3.2120   -1.1330   -1.8180 oh        1 MOL     -0.678557
    119 H53         2.5720   -1.5670    0.4290 hn        1 MOL      0.238219
    120 H54         4.2490   -3.9010   -0.3370 h1        1 MOL      0.079912
    121 H55         4.6500   -2.4670   -2.3200 h1        1 MOL      0.000574
    122 H56         2.3700   -1.2310   -1.3590 ho        1 MOL      0.342265
    123 H57         3.0670   -4.5260   -1.9620 hc        1 MOL      0.117111
    124 H58         1.8520   -3.2180   -1.9610 hc        1 MOL      0.117111
    125 H59         2.8090   -3.4820   -3.3890 hc        1 MOL      0.117111
    126 N11         6.4440   -2.5860   -0.4600 n         1 MOL     -0.355613
    127 C39         7.7620   -1.8810   -0.3570 c3        1 MOL     -0.027117
    128 C40         7.8060   -0.3670   -0.6000 c         1 MOL      0.415276
    129 O19         8.3820    0.3370    0.1750 o         1 MOL     -0.502407
    130 C41         8.7650   -2.5270   -1.3270 c3        1 MOL      0.187937
    131 C42         9.2720   -3.8610   -0.9440 c3        1 MOL     -0.396081
    132 O20         8.1120   -2.5690   -2.6100 oh        1 MOL     -0.632415
    133 H60         6.3560   -3.3560   -1.1050 hn        1 MOL      0.282663
    134 H61         8.1770   -1.8920    0.6470 h1        1 MOL      0.117702
    135 H62         9.6620   -1.9320   -1.4270 h1        1 MOL      0.104314
    136 H63         8.5090   -3.3210   -3.0660 ho        1 MOL      0.415212
    137 H64         9.4900   -4.0410    0.1050 hc        1 MOL      0.119902
    138 H65         8.6080   -4.6610   -1.2490 hc        1 MOL      0.119902
    139 H66        10.2620   -3.9570   -1.3960 hc        1 MOL      0.119902
    140 N12         7.0200    0.1950   -1.5140 n         1 MOL     -0.220109
    141 C43         6.6630    1.6160   -1.6140 c3        1 MOL     -0.122264
    142 C44         5.6170    2.1610   -0.6620 c         1 MOL      0.491477
    143 O21         5.1710    3.2770   -0.7830 o         1 MOL     -0.549794
    144 C45         6.3250    1.9520   -3.0410 c3        1 MOL     -0.223905
    145 C46         5.0710    1.1210   -3.4610 c3        1 MOL      0.087009
    146 C47         4.5480    1.5510   -4.8790 c3        1 MOL     -0.385730
    147 C48         3.1520    1.0330   -4.9120 c3        1 MOL     -0.050754
    148 N13         3.0860   -0.4950   -4.9320 n4        1 MOL     -0.450296
    149 H67         6.5370   -0.4010   -2.1760 hn        1 MOL      0.175925
    150 H68         7.5630    2.1520   -1.3040 h1        1 MOL      0.161373
    151 H69         7.2120    1.7760   -3.6500 hc        1 MOL      0.100819
    152 H70         6.0420    2.9970   -3.1590 hc        1 MOL      0.100819
    153 H71         4.2660    1.3520   -2.7600 hc        1 MOL      0.066085
    154 H72         5.3360    0.0650   -3.3740 hc        1 MOL      0.066085
    155 H73         5.1680    0.9700   -5.5530 hc        1 MOL      0.152424
    156 H74         4.5030    2.6320   -4.9500 hc        1 MOL      0.152424
    157 H75         2.5960    1.4590   -5.7570 hx        1 MOL      0.168806
    158 H76         2.6190    1.4060   -4.0420 hx        1 MOL      0.168806
    159 H77         4.0120   -0.8950   -4.8690 hn        1 MOL      0.338982
    160 H78         2.4930   -0.9460   -4.2540 hn        1 MOL      0.338982
    161 H79         2.8250   -0.7380   -5.8740 hn        1 MOL      0.338982
    162 N14         5.2320    1.4020    0.3850 n         1 MOL     -0.033024
    163 C49         4.3060    1.7780    1.4230 c3        1 MOL     -0.335502
    164 C50         4.7320    1.4170    2.8400 c         1 MOL      0.517381
    165 O22         4.0910    1.9250    3.7760 o         1 MOL     -0.528479
    166 C51         2.8980    1.1400    1.2520 c3        1 MOL      0.098966
    167 C52         2.1560    1.5160   -0.0570 c3        1 MOL     -0.091894
    168 C53         0.8980    0.6480    0.0420 c         1 MOL      0.437545
    169 O23         0.9640   -0.5010   -0.4090 o         1 MOL     -0.500825
    170 O24        -0.2030    1.1070    0.3960 o         1 MOL     -0.500825
    171 H80         5.8480    0.6510    0.6430 hn        1 MOL     -0.029215
    172 H81         4.0620    2.8450    1.3840 h1        1 MOL      0.152209
    173 H82         2.2720    1.4440    2.0920 hc        1 MOL      0.070219
    174 H83         2.9950    0.0760    1.4290 hc        1 MOL      0.070219
    175 H84         2.7050    1.2750   -0.9680 hc        1 MOL      0.045948
    176 H85         1.9620    2.5890   -0.0850 hc        1 MOL      0.045948
    177 N15         5.7860    0.6040    3.0200 n         1 MOL     -0.261155
    178 C54         6.3200    0.2750    4.2910 c3        1 MOL     -0.147552
    179 H86         6.3760   -0.8090    4.3910 h1        1 MOL      0.076750
    180 H87         7.3180    0.7000    4.3880 h1        1 MOL      0.076750
    181 H88         5.6750    0.6770    5.0730 h1        1 MOL      0.076750
    182 H89         6.0500    0.0390    2.2260 hn        1 MOL      0.325578
    183 Ca1        -1.7080   -0.4050   -1.1170 Ca        1 MOL      1.762522
    184 O25        -0.6800   -0.3800   -3.5320 oh        1 MOL     -0.891313
    185 H90        -0.8810    0.4350   -4.0000 ho        1 MOL      0.397147
    186 H91        -0.8500   -1.0720   -4.1630 ho        1 MOL      0.397147
    187 O26        -0.7060   -2.7710   -2.0070 oh        1 MOL     -0.891313
    188 H92        -0.3650   -2.7270   -2.8950 ho        1 MOL      0.397147
    189 H93        -1.4100   -3.4210   -2.0430 ho        1 MOL      0.397147
@<TRIPOS>BOND
     1    1    2 1   
     2    1    4 1   
     3    1    5 1   
     4    1    6 1   
     5    2    3 2   
     6    2    7 1   
     7    7    8 1   
     8    7   15 1   
     9    8    9 1   
    10    8   11 1   
    11    8   16 1   
    12    9   10 2   
    13    9   19 1   
    14   11   12 1   
    15   11   17 1   
    16   11   18 1   
    17   12   13 1   
    18   12   14 1   
    19   19   20 1   
    20   19   28 1   
    21   20   21 1   
    22   20   23 1   
    23   20   29 1   
    24   21   22 2   
    25   21   41 1   
    26   23   24 1   
    27   23   30 1   
    28   23   31 1   
    29   24   25 1   
    30   24   32 1   
    31   24   33 1   
    32   25   26 1   
    33   25   34 1   
    34   25   35 1   
    35   26   27 1   
    36   26   36 1   
    37   26   37 1   
    38   27   38 1   
    39   27   39 1   
    40   27   40 1   
    41   41   42 1   
    42   41   49 1   
    43   42   43 1   
    44   42   45 1   
    45   42   50 1   
    46   43   44 2   
    47   43   53 1   
    48   45   46 1   
    49   45   51 1   
    50   45   52 1   
    51   46   47 1   
    52   46   48 1   
    53   53   54 1   
    54   53   57 1   
    55   54   55 1   
    56   54   58 1   
    57   54   59 1   
    58   55   56 2   
    59   55   60 1   
    60   60   61 1   
    61   60   68 1   
    62   61   62 1   
    63   61   64 1   
    64   61   69 1   
    65   62   63 2   
    66   62   72 1   
    67   64   65 1   
    68   64   70 1   
    69   64   71 1   
    70   65   66 1   
    71   65   67 1   
    72   72   73 1   
    73   72   76 1   
    74   73   74 1   
    75   73   77 1   
    76   73   78 1   
    77   74   75 2   
    78   74   79 1   
    79   79   80 1   
    80   79   86 1   
    81   80   81 1   
    82   80   83 1   
    83   80   87 1   
    84   81   82 2   
    85   81   93 1   
    86   83   84 1   
    87   83   85 1   
    88   83   88 1   
    89   84   90 1   
    90   84   91 1   
    91   84   92 1   
    92   85   89 1   
    93   93   94 1   
    94   93  101 1   
    95   94   95 1   
    96   94   97 1   
    97   94  102 1   
    98   95   96 2   
    99   95  112 1   
   100   97   98 1   
   101   97   99 1   
   102   97  103 1   
   103   98  100 1   
   104   98  104 1   
   105   98  105 1   
   106   99  106 1   
   107   99  107 1   
   108   99  108 1   
   109  100  109 1   
   110  100  110 1   
   111  100  111 1   
   112  112  113 1   
   113  112  119 1   
   114  113  114 1   
   115  113  116 1   
   116  113  120 1   
   117  114  115 2   
   118  114  126 1   
   119  116  117 1   
   120  116  118 1   
   121  116  121 1   
   122  117  123 1   
   123  117  124 1   
   124  117  125 1   
   125  118  122 1   
   126  126  127 1   
   127  126  133 1   
   128  127  128 1   
   129  127  130 1   
   130  127  134 1   
   131  128  129 2   
   132  128  140 1   
   133  130  131 1   
   134  130  132 1   
   135  130  135 1   
   136  131  137 1   
   137  131  138 1   
   138  131  139 1   
   139  132  136 1   
   140  140  141 1   
   141  140  149 1   
   142  141  142 1   
   143  141  144 1   
   144  141  150 1   
   145  142  143 2   
   146  142  162 1   
   147  144  145 1   
   148  144  151 1   
   149  144  152 1   
   150  145  146 1   
   151  145  153 1   
   152  145  154 1   
   153  146  147 1   
   154  146  155 1   
   155  146  156 1   
   156  147  148 1   
   157  147  157 1   
   158  147  158 1   
   159  148  159 1   
   160  148  160 1   
   161  148  161 1   
   162  162  163 1   
   163  162  171 1   
   164  163  164 1   
   165  163  166 1   
   166  163  172 1   
   167  164  165 2   
   168  164  177 1   
   169  166  167 1   
   170  166  173 1   
   171  166  174 1   
   172  167  168 1   
   173  167  175 1   
   174  167  176 1   
   175  168  169 1   
   176  168  170 1   
   177  177  178 1   
   178  177  182 1   
   179  178  179 1   
   180  178  180 1   
   181  178  181 1   
   182  184  185 1   
   183  184  186 1   
   184  187  188 1   
   185  187  189 1   
@<TRIPOS>SUBSTRUCTURE
     1 MOL         1 TEMP              0 ****  ****    0 ROOT
