@<TRIPOS>MOLECULE
MOL
  183   181     1     0     0
SMALL
resp


@<TRIPOS>ATOM
      1 C1         -0.7310    3.3500    6.1180 c3        1 MOL     -0.306101
      2 C2         -1.0330    2.9580    4.5720 c         1 MOL      0.751532
      3 O1         -0.1540    3.1640    3.7360 o         1 MOL     -0.578960
      4 H1         -0.9970    4.3930    6.2860 hc        1 MOL      0.062168
      5 H2         -1.3220    2.7130    6.7760 hc        1 MOL      0.062168
      6 H3          0.3290    3.2070    6.3290 hc        1 MOL      0.062168
      7 N1         -2.1880    2.3160    4.3970 n         1 MOL     -0.692699
      8 C3         -2.7150    2.0490    3.0210 c3        1 MOL      0.145419
      9 C4         -3.2820    3.3660    2.3780 c         1 MOL      0.389281
     10 O2         -4.0940    4.0390    3.0080 o         1 MOL     -0.561791
     11 C5         -3.8260    0.8860    2.9660 c3        1 MOL     -0.031736
     12 C6         -4.3690    0.6160    1.5760 c         1 MOL      0.703802
     13 O3         -5.5150    0.0280    1.5090 o         1 MOL     -0.661368
     14 O4         -3.7130    0.8880    0.5960 o         1 MOL     -0.661368
     15 H4         -2.8840    2.2200    5.1240 hn        1 MOL      0.360230
     16 H5         -1.9060    1.6550    2.4120 h1        1 MOL      0.024046
     17 H6         -4.6070    0.9550    3.7240 hc        1 MOL      0.005218
     18 H7         -3.3200   -0.0330    3.2460 hc        1 MOL      0.005218
     19 N2         -2.9470    3.5580    1.1240 n         1 MOL     -0.131280
     20 C7         -2.9510    4.8430    0.3970 c3        1 MOL     -0.049588
     21 C8         -3.9840    4.8370   -0.7280 c         1 MOL      0.416813
     22 O5         -4.7810    5.7680   -0.8790 o         1 MOL     -0.530382
     23 C9         -1.5570    5.2170   -0.0750 c3        1 MOL      0.163707
     24 C10        -0.3510    4.8380    0.8650 c3        1 MOL      0.097116
     25 C11        -1.5170    6.6420   -0.5180 c3        1 MOL     -0.242824
     26 C12         1.0060    5.3570    0.3440 c3        1 MOL     -0.232211
     27 H8         -2.4770    2.7940    0.6490 hn        1 MOL      0.194814
     28 H9         -3.2810    5.6250    1.0700 h1        1 MOL      0.058271
     29 H10        -1.3960    4.5920   -0.9570 hc        1 MOL     -0.006643
     30 H11        -0.2360    3.7790    1.0330 hc        1 MOL     -0.008497
     31 H12        -0.5660    5.3310    1.8100 hc        1 MOL     -0.008497
     32 H13        -0.6970    6.7830   -1.2230 hc        1 MOL      0.047735
     33 H14        -2.4430    6.9470   -1.0030 hc        1 MOL      0.047735
     34 H15        -1.4600    7.3400    0.3260 hc        1 MOL      0.047735
     35 H16         1.8550    4.7720    0.7080 hc        1 MOL      0.042425
     36 H17         0.9480    5.2780   -0.7490 hc        1 MOL      0.042425
     37 H18         1.1580    6.3770    0.6760 hc        1 MOL      0.042425
     38 N3         -3.9780    3.7130   -1.5080 n         1 MOL     -0.233403
     39 C13        -4.9580    3.4710   -2.5640 c3        1 MOL     -0.017636
     40 C14        -6.2330    2.7230   -2.0680 c         1 MOL      0.427931
     41 O6         -7.3060    2.8830   -2.6590 o         1 MOL     -0.554395
     42 C15        -4.3360    2.6110   -3.6820 c3        1 MOL      0.028327
     43 C16        -3.7270    1.3030   -3.2710 c         1 MOL      0.622932
     44 O7         -4.4180    0.4100   -2.7140 o         1 MOL     -0.719824
     45 O8         -2.4800    1.1790   -3.2390 o         1 MOL     -0.719824
     46 H19        -3.2000    3.0730   -1.5000 hn        1 MOL      0.173301
     47 H20        -5.2850    4.4350   -2.9470 h1        1 MOL      0.068262
     48 H21        -3.6100    3.2260   -4.2030 hc        1 MOL     -0.009457
     49 H22        -5.1140    2.5080   -4.4450 hc        1 MOL     -0.009457
     50 N4         -6.1340    1.9580   -0.9390 n         1 MOL     -0.020743
     51 C17        -7.4070    1.3970   -0.3590 c3        1 MOL     -0.145210
     52 C18        -7.8480    0.0380   -0.9160 c         1 MOL      0.621991
     53 O9         -8.9020   -0.2280   -1.5370 o         1 MOL     -0.617971
     54 H23        -5.2490    1.8810   -0.4600 hn        1 MOL      0.064354
     55 H24        -8.2720    2.0280   -0.5570 h1        1 MOL      0.047713
     56 H25        -7.4010    1.3820    0.7330 h1        1 MOL      0.047713
     57 N5         -7.0160   -0.9510   -0.6420 n         1 MOL     -0.358034
     58 C19        -7.2360   -2.3640   -0.9050 c3        1 MOL      0.001668
     59 C20        -6.9240   -3.2580    0.2860 c         1 MOL      0.440533
     60 O10        -7.1030   -4.4530    0.1720 o         1 MOL     -0.557031
     61 C21        -6.3460   -2.7490   -2.1060 c3        1 MOL     -0.080137
     62 C22        -4.8630   -2.7040   -1.8840 c         1 MOL      0.816970
     63 O11        -4.0990   -3.1940   -2.7860 o         1 MOL     -0.798479
     64 O12        -4.3390   -2.2080   -0.8730 o         1 MOL     -0.798479
     65 H26        -6.2010   -0.7070   -0.0920 hn        1 MOL      0.178864
     66 H27        -8.2310   -2.6150   -1.2540 h1        1 MOL      0.092527
     67 H28        -6.6550   -2.1250   -2.9370 hc        1 MOL      0.036326
     68 H29        -6.4930   -3.7810   -2.4350 hc        1 MOL      0.036326
     69 N6         -6.6030   -2.7730    1.4900 n         1 MOL     -0.269826
     70 C23        -6.4710   -3.5820    2.6870 c3        1 MOL     -0.017354
     71 C24        -5.0290   -3.9890    2.9840 c         1 MOL      0.469754
     72 O13        -4.7290   -4.6530    3.9800 o         1 MOL     -0.565600
     73 H30        -6.3680   -1.7890    1.5700 hn        1 MOL      0.195637
     74 H31        -7.1070   -4.4660    2.5880 h1        1 MOL      0.057829
     75 H32        -6.8690   -3.0960    3.5850 h1        1 MOL      0.057829
     76 N7         -4.0620   -3.5530    2.0440 n         1 MOL     -0.154127
     77 C25        -2.6470   -3.8360    2.0820 c3        1 MOL     -0.032695
     78 C26        -1.7390   -2.6660    1.8020 c         1 MOL      0.684429
     79 O14        -2.2220   -1.5920    1.3920 o         1 MOL     -0.659207
     80 C27        -2.3220   -5.0650    1.1910 c3        1 MOL     -0.129153
     81 C28        -2.6930   -5.0200   -0.2470 c3        1 MOL     -0.074445
     82 C29        -1.6810   -4.3470   -1.2070 c         1 MOL      0.568354
     83 N8         -0.8670   -5.0900   -1.9350 n         1 MOL     -0.675654
     84 O15        -1.3260   -3.1560   -1.0410 o         1 MOL     -0.563666
     85 H33        -4.3650   -2.8730    1.3600 hn        1 MOL      0.161860
     86 H34        -2.5070   -4.0270    3.1460 h1        1 MOL      0.044609
     87 H35        -2.8900   -5.8930    1.6080 hc        1 MOL      0.039427
     88 H36        -1.3000   -5.4290    1.2560 hc        1 MOL      0.039427
     89 H37        -3.6810   -4.6270   -0.4950 hc        1 MOL      0.039208
     90 H38        -2.7180   -6.0550   -0.5720 hc        1 MOL      0.039208
     91 H39        -1.1930   -6.0300   -2.0810 hn        1 MOL      0.321220
     92 H40         0.0340   -4.7340   -2.2210 hn        1 MOL      0.321220
     93 N9         -0.5200   -2.7920    2.1480 n         1 MOL     -0.394993
     94 C30         0.5760   -1.7490    2.0710 c3        1 MOL     -0.133080
     95 C31         1.7220   -2.4960    1.3610 c         1 MOL      0.434730
     96 O16         2.3880   -3.2880    2.0560 o         1 MOL     -0.567167
     97 C32         0.8910   -1.2850    3.5260 c3        1 MOL      0.138345
     98 C33         2.0890   -0.3640    3.5590 c3        1 MOL     -0.212361
     99 C34        -0.3040   -0.4920    4.0450 c3        1 MOL     -0.212361
    100 H41        -0.2250   -3.6640    2.5640 hn        1 MOL      0.265166
    101 H42         0.2510   -0.8990    1.4750 h1        1 MOL      0.101323
    102 H43         1.1050   -2.0820    4.2410 hc        1 MOL      0.028471
    103 H44         2.4900   -0.3510    4.5810 hc        1 MOL      0.047007
    104 H45         2.8760   -0.8720    3.0020 hc        1 MOL      0.047007
    105 H46         2.0170    0.6400    3.1270 hc        1 MOL      0.047007
    106 H47        -1.2020   -1.0820    4.2190 hc        1 MOL      0.047007
    107 H48         0.0650   -0.0110    4.9400 hc        1 MOL      0.047007
    108 H49        -0.5700    0.3270    3.3660 hc        1 MOL      0.047007
    109 N10         2.0270   -2.1400    0.1060 n         1 MOL     -0.048135
    110 C35         3.2310   -2.5890   -0.5800 c3        1 MOL     -0.044624
    111 C36         4.4770   -1.8700   -0.0300 c         1 MOL      0.401509
    112 O17         4.3810   -0.9340    0.7340 o         1 MOL     -0.281080
    113 C37         3.0430   -2.1960   -2.0800 c3        1 MOL     -0.224071
    114 C38         1.9200   -2.8510   -2.8510 c         1 MOL      0.666662
    115 N11         0.8500   -2.1770   -3.1920 n         1 MOL     -0.652969
    116 O18         1.9010   -4.0170   -3.1960 o         1 MOL     -0.621299
    117 H50         1.3770   -1.5250   -0.3580 hn        1 MOL      0.083766
    118 H51         3.3920   -3.6540   -0.4660 h1        1 MOL      0.066177
    119 H52         3.9320   -2.4210   -2.6700 hc        1 MOL      0.063606
    120 H53         2.8410   -1.1310   -2.1640 hc        1 MOL      0.063606
    121 H54         0.7250   -1.2620   -2.7840 hn        1 MOL      0.321508
    122 H55         0.0430   -2.6870   -3.5260 hn        1 MOL      0.321508
    123 N12         5.6630   -2.3650   -0.4790 n         1 MOL     -0.489442
    124 C39         6.9090   -1.7590   -0.0600 c3        1 MOL      0.137718
    125 C40         6.9010   -0.2410   -0.2960 c         1 MOL      0.684234
    126 O19         7.2620    0.5790    0.5920 o         1 MOL     -0.531784
    127 C41         8.1320   -2.5190   -0.5640 c3        1 MOL     -0.063173
    128 C42         9.4350   -2.0660    0.0030 ca        1 MOL      0.094067
    129 C43         9.8020   -2.4210    1.3030 ca        1 MOL     -0.267289
    130 C44        10.2600   -1.1740   -0.6900 ca        1 MOL     -0.267289
    131 C45        10.9510   -1.7780    1.9750 ca        1 MOL     -0.169993
    132 C46        11.4210   -0.6390   -0.0980 ca        1 MOL     -0.169993
    133 C47        11.7600   -0.9480    1.2080 ca        1 MOL      0.293617
    134 O20        12.8840   -0.3910    1.7410 oh        1 MOL     -0.515506
    135 H56         5.5830   -3.1690   -1.0940 hn        1 MOL      0.292963
    136 H57         6.8970   -1.8730    1.0210 h1        1 MOL      0.042236
    137 H58         8.1070   -2.4070   -1.6530 hc        1 MOL      0.030950
    138 H59         8.0710   -3.5810   -0.3400 hc        1 MOL      0.030950
    139 H60         9.1010   -3.0020    1.8750 ha        1 MOL      0.159800
    140 H61         9.9730   -0.8990   -1.6920 ha        1 MOL      0.159800
    141 H62        11.1210   -1.9600    3.0260 ha        1 MOL      0.132131
    142 H63        12.0020    0.0220   -0.7340 ha        1 MOL      0.132131
    143 H64        13.4770   -0.0020    1.0930 ho        1 MOL      0.364313
    144 N13         6.5660    0.1840   -1.5200 n         1 MOL     -0.507160
    145 C48         6.4700    1.5940   -1.9270 c3        1 MOL     -0.048824
    146 C49         5.4520    2.3940   -1.0690 c         1 MOL      0.509176
    147 O21         5.5720    3.5830   -0.9690 o         1 MOL     -0.507553
    148 C50         6.1280    1.6300   -3.4350 c3        1 MOL      0.010319
    149 C51         4.6680    1.2940   -3.8500 c3        1 MOL      0.059723
    150 C52         4.4130    1.5780   -5.3250 c         1 MOL      0.600288
    151 O22         4.5460    2.8180   -5.6440 o         1 MOL     -0.707699
    152 O23         4.2350    0.6010   -6.0990 o         1 MOL     -0.707699
    153 H65         6.2500   -0.5130   -2.1810 hn        1 MOL      0.288977
    154 H66         7.4630    2.0150   -1.7970 h1        1 MOL      0.079739
    155 H67         6.8230    0.9980   -3.9770 hc        1 MOL      0.004358
    156 H68         6.2710    2.6640   -3.7340 hc        1 MOL      0.004358
    157 H69         3.9180    1.8410   -3.2690 hc        1 MOL     -0.042839
    158 H70         4.5120    0.2260   -3.7420 hc        1 MOL     -0.042839
    159 N14         4.4390    1.6990   -0.3550 n         1 MOL     -0.225728
    160 C53         3.5240    2.3850    0.5880 c3        1 MOL     -0.024981
    161 C54         4.1390    2.4410    1.9870 c         1 MOL      0.393972
    162 O24         3.8210    3.3280    2.7740 o         1 MOL     -0.551571
    163 C55         2.1470    1.6400    0.5690 c3        1 MOL      0.132168
    164 C56         1.3170    1.7490   -0.7010 c3        1 MOL     -0.009955
    165 C57         0.1380    0.8260   -0.6620 c         1 MOL      0.548144
    166 O25        -1.0070    1.3880   -0.5920 o         1 MOL     -0.654292
    167 O26         0.2220   -0.3860   -0.8620 o         1 MOL     -0.654292
    168 H71         4.4050    0.6940   -0.2930 hn        1 MOL      0.029088
    169 H72         3.3940    3.4020    0.2270 h1        1 MOL      0.096642
    170 H73         1.5050    2.1130    1.3240 hc        1 MOL      0.073952
    171 H74         2.3070    0.5930    0.8190 hc        1 MOL      0.073952
    172 H75         2.0260    1.5250   -1.4960 hc        1 MOL      0.009658
    173 H76         0.9990    2.7830   -0.8260 hc        1 MOL      0.009658
    174 N15         5.1240    1.5980    2.2360 n         1 MOL     -0.007762
    175 C58         5.8780    1.5340    3.5480 c3        1 MOL     -0.193359
    176 H77         5.8130    2.5000    4.0510 h1        1 MOL      0.077752
    177 H78         5.4390    0.7640    4.1840 h1        1 MOL      0.077752
    178 H79         6.9230    1.2950    3.3550 h1        1 MOL      0.077752
    179 H80         5.3530    0.9190    1.5200 hn        1 MOL     -0.035002
    180 Ca1        -2.4490   -0.5950   -1.2220 Ca        1 MOL      1.782258
    181 O27        -1.8570   -1.7280   -3.6010 oh        1 MOL     -0.739242
    182 H81        -1.6590   -1.8990   -4.5200 ho        1 MOL      0.380971
    183 H82        -2.3740   -2.4890   -3.3210 ho        1 MOL      0.380971
@<TRIPOS>BOND
     1    1    2 1   
     2    1    4 1   
     3    1    5 1   
     4    1    6 1   
     5    2    3 2   
     6    2    7 1   
     7    7    8 1   
     8    7   15 1   
     9    8    9 1   
    10    8   11 1   
    11    8   16 1   
    12    9   10 2   
    13    9   19 1   
    14   11   12 1   
    15   11   17 1   
    16   11   18 1   
    17   12   13 1   
    18   12   14 1   
    19   19   20 1   
    20   19   27 1   
    21   20   21 1   
    22   20   23 1   
    23   20   28 1   
    24   21   22 2   
    25   21   38 1   
    26   23   24 1   
    27   23   25 1   
    28   23   29 1   
    29   24   26 1   
    30   24   30 1   
    31   24   31 1   
    32   25   32 1   
    33   25   33 1   
    34   25   34 1   
    35   26   35 1   
    36   26   36 1   
    37   26   37 1   
    38   38   39 1   
    39   38   46 1   
    40   39   40 1   
    41   39   42 1   
    42   39   47 1   
    43   40   41 2   
    44   40   50 1   
    45   42   43 1   
    46   42   48 1   
    47   42   49 1   
    48   43   44 1   
    49   43   45 1   
    50   50   51 1   
    51   50   54 1   
    52   51   52 1   
    53   51   55 1   
    54   51   56 1   
    55   52   53 2   
    56   52   57 1   
    57   57   58 1   
    58   57   65 1   
    59   58   59 1   
    60   58   61 1   
    61   58   66 1   
    62   59   60 2   
    63   59   69 1   
    64   61   62 1   
    65   61   67 1   
    66   61   68 1   
    67   62   63 1   
    68   62   64 1   
    69   69   70 1   
    70   69   73 1   
    71   70   71 1   
    72   70   74 1   
    73   70   75 1   
    74   71   72 2   
    75   71   76 1   
    76   76   77 1   
    77   76   85 1   
    78   77   78 1   
    79   77   80 1   
    80   77   86 1   
    81   78   79 2   
    82   78   93 1   
    83   80   81 1   
    84   80   87 1   
    85   80   88 1   
    86   81   82 1   
    87   81   89 1   
    88   81   90 1   
    89   82   83 1   
    90   82   84 2   
    91   83   91 1   
    92   83   92 1   
    93   93   94 1   
    94   93  100 1   
    95   94   95 1   
    96   94   97 1   
    97   94  101 1   
    98   95   96 2   
    99   95  109 1   
   100   97   98 1   
   101   97   99 1   
   102   97  102 1   
   103   98  103 1   
   104   98  104 1   
   105   98  105 1   
   106   99  106 1   
   107   99  107 1   
   108   99  108 1   
   109  109  110 1   
   110  109  117 1   
   111  110  111 1   
   112  110  113 1   
   113  110  118 1   
   114  111  112 2   
   115  111  123 1   
   116  113  114 1   
   117  113  119 1   
   118  113  120 1   
   119  114  115 1   
   120  114  116 2   
   121  115  121 1   
   122  115  122 1   
   123  123  124 1   
   124  123  135 1   
   125  124  125 1   
   126  124  127 1   
   127  124  136 1   
   128  125  126 2   
   129  125  144 1   
   130  127  128 1   
   131  127  137 1   
   132  127  138 1   
   133  128  129 ar  
   134  128  130 ar  
   135  129  131 ar  
   136  129  139 1   
   137  130  132 ar  
   138  130  140 1   
   139  131  133 ar  
   140  131  141 1   
   141  132  133 ar  
   142  132  142 1   
   143  133  134 1   
   144  134  143 1   
   145  144  145 1   
   146  144  153 1   
   147  145  146 1   
   148  145  148 1   
   149  145  154 1   
   150  146  147 2   
   151  146  159 1   
   152  148  149 1   
   153  148  155 1   
   154  148  156 1   
   155  149  150 1   
   156  149  157 1   
   157  149  158 1   
   158  150  151 1   
   159  150  152 1   
   160  159  160 1   
   161  159  168 1   
   162  160  161 1   
   163  160  163 1   
   164  160  169 1   
   165  161  162 2   
   166  161  174 1   
   167  163  164 1   
   168  163  170 1   
   169  163  171 1   
   170  164  165 1   
   171  164  172 1   
   172  164  173 1   
   173  165  166 1   
   174  165  167 1   
   175  174  175 1   
   176  174  179 1   
   177  175  176 1   
   178  175  177 1   
   179  175  178 1   
   180  181  182 1   
   181  181  183 1   
@<TRIPOS>SUBSTRUCTURE
     1 MOL         1 TEMP              0 ****  ****    0 ROOT
