@<TRIPOS>MOLECULE
MOL
  179   176     1     0     0
SMALL
resp


@<TRIPOS>ATOM
      1 C1          1.9030    3.5350    6.8260 c3        1 MOL     -0.309654
      2 C2          1.9040    2.8620    5.3890 c         1 MOL      0.722194
      3 O1          2.8880    2.3830    4.9460 o         1 MOL     -0.574702
      4 H1          1.2420    2.9760    7.4870 hc        1 MOL      0.078592
      5 H2          2.9150    3.5270    7.2320 hc        1 MOL      0.078592
      6 H3          1.5510    4.5640    6.7460 hc        1 MOL      0.078592
      7 N1          0.8120    2.9890    4.6390 n         1 MOL     -0.630803
      8 C3          0.7060    2.6770    3.2250 c3        1 MOL      0.205349
      9 C4          0.6520    3.9820    2.4770 c         1 MOL      0.548996
     10 O2          0.0540    4.9580    2.8850 o         1 MOL     -0.548328
     11 C5         -0.4760    1.8040    2.9920 c3        1 MOL     -0.120308
     12 C6         -0.6610    1.3930    1.5140 c         1 MOL      0.707264
     13 O3         -1.7550    1.6840    0.9500 o         1 MOL     -0.738417
     14 O4          0.2070    0.7470    0.9000 o         1 MOL     -0.738417
     15 H4          0.0180    3.4400    5.0740 hn        1 MOL      0.304074
     16 H5          1.5660    2.0930    2.9070 h1        1 MOL      0.032926
     17 H6         -1.3570    2.3210    3.3730 hc        1 MOL      0.034084
     18 H7         -0.3180    0.9120    3.5850 hc        1 MOL      0.034084
     19 N2          1.2030    4.0520    1.2450 n         1 MOL     -0.247019
     20 C7          1.5000    5.2080    0.4460 c3        1 MOL     -0.247010
     21 C8          0.1800    5.8060   -0.1880 c         1 MOL      0.568366
     22 O5          0.1270    7.0270   -0.4200 o         1 MOL     -0.560207
     23 C9          2.6690    4.8300   -0.4020 c3        1 MOL      0.058116
     24 C10         2.9760    5.9030   -1.4730 c3        1 MOL     -0.224142
     25 C11         4.0990    5.4490   -2.4280 c3        1 MOL      0.064581
     26 C12         4.4440    6.4950   -3.4330 c3        1 MOL      0.129062
     27 N3          5.2450    5.9760   -4.5780 n4        1 MOL     -0.460241
     28 H8          1.6140    3.1850    0.9160 hn        1 MOL      0.139835
     29 H9          1.8830    5.8740    1.2150 h1        1 MOL      0.145870
     30 H10         2.4120    3.8950   -0.9080 hc        1 MOL      0.069321
     31 H11         3.4950    4.5710    0.2550 hc        1 MOL      0.069321
     32 H12         3.2690    6.8830   -1.0890 hc        1 MOL      0.088649
     33 H13         2.1410    6.0940   -2.1500 hc        1 MOL      0.088649
     34 H14         3.7480    4.6170   -3.0400 hc        1 MOL      0.012328
     35 H15         4.9280    5.1060   -1.8080 hc        1 MOL      0.012328
     36 H16         5.0430    7.2630   -2.9330 hx        1 MOL      0.054243
     37 H17         3.5560    6.9620   -3.8460 hx        1 MOL      0.054243
     38 H18         5.4800    6.8260   -5.0820 hn        1 MOL      0.353469
     39 H19         6.0600    5.5000   -4.2320 hn        1 MOL      0.353469
     40 H20         4.6980    5.3970   -5.2050 hn        1 MOL      0.353469
     41 N4         -0.7810    4.9480   -0.6000 n         1 MOL     -0.359600
     42 C13        -2.0900    5.4390   -1.0720 c3        1 MOL      0.025582
     43 C14        -3.3040    5.0920   -0.2800 c         1 MOL      0.502262
     44 O6         -4.3990    5.6440   -0.3230 o         1 MOL     -0.552405
     45 C15        -2.2030    4.8670   -2.5270 c3        1 MOL     -0.350464
     46 C16        -2.0720    3.3580   -2.6960 c         1 MOL      0.817481
     47 O7         -1.8040    2.6000   -1.7550 o         1 MOL     -0.739130
     48 O8         -2.3450    2.8870   -3.8380 o         1 MOL     -0.739130
     49 H21        -0.6650    3.9730   -0.3520 hn        1 MOL      0.254064
     50 H22        -2.1050    6.5250   -1.0950 h1        1 MOL      0.123933
     51 H23        -1.5650    5.4410   -3.1980 hc        1 MOL      0.105265
     52 H24        -3.1670    5.0880   -3.0000 hc        1 MOL      0.105265
     53 N5         -3.1220    4.2030    0.7500 n         1 MOL     -0.226068
     54 C17        -4.1040    3.8880    1.7760 c3        1 MOL     -0.087813
     55 C18        -5.2340    3.0840    1.2060 c         1 MOL      0.581328
     56 O9         -6.2130    2.9680    1.9330 o         1 MOL     -0.590717
     57 H25        -2.2890    3.6300    0.7740 hn        1 MOL      0.133202
     58 H26        -4.4880    4.7540    2.3200 h1        1 MOL      0.094748
     59 H27        -3.5970    3.3040    2.5530 h1        1 MOL      0.094748
     60 N6         -5.1010    2.4650    0.0080 n         1 MOL     -0.274010
     61 C19        -6.1300    1.7340   -0.8320 c3        1 MOL     -0.050465
     62 C20        -6.5320    0.3090   -0.2300 c         1 MOL      0.422519
     63 O10        -7.0970   -0.5740   -0.9180 o         1 MOL     -0.519159
     64 C21        -5.6150    1.5490   -2.2790 c3        1 MOL     -0.190169
     65 C22        -4.5750    0.3970   -2.3690 c         1 MOL      0.620390
     66 N7         -4.7120   -0.3680   -3.3970 n         1 MOL     -0.752528
     67 O11        -3.6710    0.2500   -1.5250 o         1 MOL     -0.498290
     68 H28        -4.1350    2.3640   -0.2720 hn        1 MOL      0.115684
     69 H29        -7.0560    2.3020   -0.9220 h1        1 MOL      0.139645
     70 H30        -5.2100    2.4410   -2.7650 hc        1 MOL      0.096865
     71 H31        -6.5200    1.2970   -2.8250 hc        1 MOL      0.096865
     72 H32        -5.2990    0.0540   -4.0940 hn        1 MOL      0.349423
     73 H33        -4.0670   -1.0810   -3.6930 hn        1 MOL      0.349423
     74 N8         -6.3950    0.1520    1.0650 n         1 MOL     -0.213579
     75 C23        -6.8350   -0.9210    1.8770 c3        1 MOL     -0.330811
     76 C24        -5.8820   -2.1410    1.8350 c         1 MOL      0.622493
     77 O12        -6.1190   -3.0730    2.6020 o         1 MOL     -0.566590
     78 H34        -5.9130    0.9150    1.5390 hn        1 MOL      0.269299
     79 H35        -7.8550   -1.1570    1.5580 h1        1 MOL      0.167285
     80 H36        -6.8150   -0.5990    2.9090 h1        1 MOL      0.167285
     81 N9         -4.8090   -2.1800    1.0050 n         1 MOL     -0.365288
     82 C25        -3.7880   -3.2290    0.9460 c3        1 MOL      0.390977
     83 C26        -2.4310   -2.5810    1.1180 c         1 MOL      0.239532
     84 O13        -2.1560   -1.5470    0.6070 o         1 MOL     -0.449468
     85 C27        -3.9050   -3.9170   -0.3950 c3        1 MOL      0.201389
     86 C28        -5.2450   -4.5370   -0.7410 ca        1 MOL     -0.152714
     87 C29        -5.6150   -5.7110   -0.0130 ca        1 MOL     -0.182950
     88 C30        -6.1720   -3.8180   -1.5510 ca        1 MOL     -0.182950
     89 C31        -6.9520   -6.1760   -0.1050 ca        1 MOL     -0.099896
     90 C32        -7.4470   -4.3710   -1.7800 ca        1 MOL     -0.099896
     91 C33        -7.7930   -5.5760   -1.0710 ca        1 MOL      0.156798
     92 O14        -9.1150   -6.0140   -1.1550 oh        1 MOL     -0.446830
     93 H37        -4.7730   -1.4160    0.3450 hn        1 MOL      0.117176
     94 H38        -3.9990   -3.9950    1.7030 h1        1 MOL     -0.005133
     95 H39        -3.1040   -4.6560   -0.4090 hc        1 MOL     -0.043659
     96 H40        -3.7120   -3.1510   -1.1420 hc        1 MOL     -0.043659
     97 H41        -4.9140   -6.1730    0.6620 ha        1 MOL      0.146307
     98 H42        -5.8850   -2.9090   -2.0640 ha        1 MOL      0.146307
     99 H43        -7.3920   -6.9480    0.5080 ha        1 MOL      0.125003
    100 H44        -8.1000   -3.8820   -2.4920 ha        1 MOL      0.125003
    101 H45        -9.5350   -5.4920   -1.8380 ho        1 MOL      0.340015
    102 N10        -1.4500   -3.3170    1.7360 n         1 MOL     -0.588601
    103 C34        -0.0070   -2.8860    1.6460 c3        1 MOL      0.565828
    104 C35         0.8130   -3.9830    0.9150 c         1 MOL      0.339297
    105 O15         0.5910   -5.1720    1.1670 o         1 MOL     -0.538628
    106 C36         0.6160   -2.4070    2.9670 c3        1 MOL      0.071436
    107 C37         2.0480   -1.9670    2.8370 c3        1 MOL     -0.021896
    108 C38         0.3700   -3.4620    4.0660 c3        1 MOL     -0.415038
    109 C39         2.5760   -1.2300    4.0530 c3        1 MOL     -0.035847
    110 H46        -1.6360   -4.2410    2.0800 hn        1 MOL      0.293512
    111 H47         0.0260   -2.0460    0.9420 h1        1 MOL     -0.071304
    112 H48         0.0610   -1.4930    3.1620 hc        1 MOL      0.040435
    113 H49         2.1180   -1.2470    2.0310 hc        1 MOL     -0.005833
    114 H50         2.7330   -2.8050    2.7540 hc        1 MOL     -0.005833
    115 H51        -0.6730   -3.7460    4.2200 hc        1 MOL      0.097759
    116 H52         0.9450   -4.3350    3.7420 hc        1 MOL      0.097759
    117 H53         0.7940   -2.9650    4.9450 hc        1 MOL      0.097759
    118 H54         1.9960   -0.3380    4.2860 hc        1 MOL      0.008969
    119 H55         2.5350   -1.8070    4.9760 hc        1 MOL      0.008969
    120 H56         3.6370   -1.0490    3.8680 hc        1 MOL      0.008969
    121 N11         1.7380   -3.4470    0.1000 n         1 MOL     -0.286549
    122 C40         2.6480   -4.2650   -0.7520 c3        1 MOL      0.012261
    123 C41         4.1480   -4.2080   -0.2540 c         1 MOL      0.495937
    124 O16         4.4540   -3.2870    0.4860 o         1 MOL     -0.424619
    125 C42         2.4070   -4.0550   -2.2130 c3        1 MOL      0.142895
    126 O17         2.8420   -2.7700   -2.5940 oh        1 MOL     -0.623310
    127 H57         1.8380   -2.4480    0.0140 hn        1 MOL      0.240520
    128 H58         2.3400   -5.3110   -0.6510 h1        1 MOL      0.026412
    129 H59         1.3370   -3.9840   -2.3670 h1        1 MOL      0.030198
    130 H60         2.7510   -4.9480   -2.7260 h1        1 MOL      0.030198
    131 H61         2.3090   -2.1290   -2.1200 ho        1 MOL      0.417311
    132 N12         4.9990   -5.1590   -0.7000 n         1 MOL     -0.495691
    133 C43         6.3450   -5.2460   -0.2750 c3        1 MOL      0.179182
    134 C44         7.1410   -3.8900   -0.4980 c         1 MOL      0.414041
    135 O18         7.8960   -3.4530    0.3160 o         1 MOL     -0.477870
    136 C45         7.0680   -6.4430   -0.9570 c3        1 MOL     -0.280625
    137 H62         4.6810   -5.9870   -1.1880 hn        1 MOL      0.313566
    138 H63         6.3070   -5.5150    0.7840 h1        1 MOL      0.058858
    139 H64         8.0710   -6.4300   -0.5510 hc        1 MOL      0.079112
    140 H65         6.5660   -7.3920   -0.7700 hc        1 MOL      0.079112
    141 H66         6.9870   -6.2640   -2.0270 hc        1 MOL      0.079112
    142 N13         6.8890   -3.3190   -1.6830 n         1 MOL     -0.290550
    143 C46         7.5980   -2.1250   -2.0260 c3        1 MOL      0.061587
    144 C47         7.1010   -0.9220   -1.2240 c         1 MOL      0.424544
    145 O19         7.8940   -0.0340   -0.9700 o         1 MOL     -0.520225
    146 C48         7.5530   -1.9220   -3.5250 c3        1 MOL     -0.307524
    147 H67         6.3640   -3.8220   -2.3940 hn        1 MOL      0.260294
    148 H68         8.6190   -2.2150   -1.6510 h1        1 MOL      0.087647
    149 H69         8.1020   -1.0470   -3.8970 hc        1 MOL      0.086235
    150 H70         7.8370   -2.8510   -4.0250 hc        1 MOL      0.086235
    151 H71         6.5320   -1.8410   -3.8790 hc        1 MOL      0.086235
    152 N14         5.8290   -0.8020   -0.9790 n         1 MOL     -0.079873
    153 C49         5.2890    0.2890   -0.1540 c3        1 MOL     -0.376846
    154 C50         5.8550    0.2210    1.2970 c         1 MOL      0.432010
    155 O20         6.2990    1.2470    1.8530 o         1 MOL     -0.520714
    156 C51         3.7790    0.3010   -0.1960 c3        1 MOL      0.042229
    157 C52         3.3070    0.5890   -1.6380 c3        1 MOL      0.027433
    158 C53         1.8180    0.2710   -1.7520 c         1 MOL      0.598664
    159 O21         1.0270    1.0350   -2.3570 o         1 MOL     -0.673536
    160 O22         1.4010   -0.8890   -1.4380 o         1 MOL     -0.673536
    161 H72         5.2110   -1.5220   -1.3260 hn        1 MOL      0.122719
    162 H73         5.7420    1.1860   -0.5750 h1        1 MOL      0.157264
    163 H74         3.5130    1.1450    0.4370 hc        1 MOL      0.043005
    164 H75         3.2440   -0.5830    0.1380 hc        1 MOL      0.043005
    165 H76         3.7620   -0.1320   -2.3190 hc        1 MOL     -0.016640
    166 H77         3.5890    1.5910   -1.9530 hc        1 MOL     -0.016640
    167 N15         5.9850   -0.9930    1.8750 n         1 MOL      0.071224
    168 C54         6.6190   -1.3190    3.1140 c3        1 MOL     -0.249797
    169 H78         6.1020   -2.1610    3.5750 h1        1 MOL      0.094184
    170 H79         7.6590   -1.5880    2.9310 h1        1 MOL      0.094184
    171 H80         6.5780   -0.4580    3.7810 h1        1 MOL      0.094184
    172 H81         5.7770   -1.8150    1.3160 hn        1 MOL      0.053292
    173 Ca1        -1.1460    0.1810   -1.3050 Ca        1 MOL      1.727168
    174 O23        -1.6530    0.2330   -3.8870 oh        1 MOL     -0.865956
    175 H82        -1.8230    1.1620   -4.0290 ho        1 MOL      0.408919
    176 H83        -2.3030   -0.2230   -4.4110 ho        1 MOL      0.408919
    177 O24        -1.4380   -2.3040   -2.3830 oh        1 MOL     -0.865956
    178 H84        -1.9760   -2.3230   -3.1690 ho        1 MOL      0.408919
    179 H85        -1.1460   -3.2050   -2.2690 ho        1 MOL      0.408919
@<TRIPOS>BOND
     1    1    2 1   
     2    1    4 1   
     3    1    5 1   
     4    1    6 1   
     5    2    3 2   
     6    2    7 1   
     7    7    8 1   
     8    7   15 1   
     9    8    9 1   
    10    8   11 1   
    11    8   16 1   
    12    9   10 2   
    13    9   19 1   
    14   11   12 1   
    15   11   17 1   
    16   11   18 1   
    17   12   13 1   
    18   12   14 1   
    19   19   20 1   
    20   19   28 1   
    21   20   21 1   
    22   20   23 1   
    23   20   29 1   
    24   21   22 2   
    25   21   41 1   
    26   23   24 1   
    27   23   30 1   
    28   23   31 1   
    29   24   25 1   
    30   24   32 1   
    31   24   33 1   
    32   25   26 1   
    33   25   34 1   
    34   25   35 1   
    35   26   27 1   
    36   26   36 1   
    37   26   37 1   
    38   27   38 1   
    39   27   39 1   
    40   27   40 1   
    41   41   42 1   
    42   41   49 1   
    43   42   43 1   
    44   42   45 1   
    45   42   50 1   
    46   43   44 2   
    47   43   53 1   
    48   45   46 1   
    49   45   51 1   
    50   45   52 1   
    51   46   47 1   
    52   46   48 1   
    53   53   54 1   
    54   53   57 1   
    55   54   55 1   
    56   54   58 1   
    57   54   59 1   
    58   55   56 2   
    59   55   60 1   
    60   60   61 1   
    61   60   68 1   
    62   61   62 1   
    63   61   64 1   
    64   61   69 1   
    65   62   63 2   
    66   62   74 1   
    67   64   65 1   
    68   64   70 1   
    69   64   71 1   
    70   65   66 1   
    71   65   67 2   
    72   66   72 1   
    73   66   73 1   
    74   74   75 1   
    75   74   78 1   
    76   75   76 1   
    77   75   79 1   
    78   75   80 1   
    79   76   77 2   
    80   76   81 1   
    81   81   82 1   
    82   81   93 1   
    83   82   83 1   
    84   82   85 1   
    85   82   94 1   
    86   83   84 2   
    87   83  102 1   
    88   85   86 1   
    89   85   95 1   
    90   85   96 1   
    91   86   87 ar  
    92   86   88 ar  
    93   87   89 ar  
    94   87   97 1   
    95   88   90 ar  
    96   88   98 1   
    97   89   91 ar  
    98   89   99 1   
    99   90   91 ar  
   100   90  100 1   
   101   91   92 1   
   102   92  101 1   
   103  102  103 1   
   104  102  110 1   
   105  103  104 1   
   106  103  106 1   
   107  103  111 1   
   108  104  105 2   
   109  104  121 1   
   110  106  107 1   
   111  106  108 1   
   112  106  112 1   
   113  107  109 1   
   114  107  113 1   
   115  107  114 1   
   116  108  115 1   
   117  108  116 1   
   118  108  117 1   
   119  109  118 1   
   120  109  119 1   
   121  109  120 1   
   122  121  122 1   
   123  121  127 1   
   124  122  123 1   
   125  122  125 1   
   126  122  128 1   
   127  123  124 2   
   128  123  132 1   
   129  125  126 1   
   130  125  129 1   
   131  125  130 1   
   132  126  131 1   
   133  132  133 1   
   134  132  137 1   
   135  133  134 1   
   136  133  136 1   
   137  133  138 1   
   138  134  135 2   
   139  134  142 1   
   140  136  139 1   
   141  136  140 1   
   142  136  141 1   
   143  142  143 1   
   144  142  147 1   
   145  143  144 1   
   146  143  146 1   
   147  143  148 1   
   148  144  145 2   
   149  144  152 1   
   150  146  149 1   
   151  146  150 1   
   152  146  151 1   
   153  152  153 1   
   154  152  161 1   
   155  153  154 1   
   156  153  156 1   
   157  153  162 1   
   158  154  155 2   
   159  154  167 1   
   160  156  157 1   
   161  156  163 1   
   162  156  164 1   
   163  157  158 1   
   164  157  165 1   
   165  157  166 1   
   166  158  159 1   
   167  158  160 1   
   168  167  168 1   
   169  167  172 1   
   170  168  169 1   
   171  168  170 1   
   172  168  171 1   
   173  174  175 1   
   174  174  176 1   
   175  177  178 1   
   176  177  179 1   
@<TRIPOS>SUBSTRUCTURE
     1 MOL         1 TEMP              0 ****  ****    0 ROOT
