@<TRIPOS>MOLECULE
MOL
  182   178     1     0     0
SMALL
resp


@<TRIPOS>ATOM
      1 C1          2.0440    2.4970    6.2340 c3        1 MOL     -0.201122
      2 C2          1.5810    2.2250    4.7570 c         1 MOL      0.707967
      3 O1          2.4430    2.0670    3.8930 o         1 MOL     -0.575769
      4 H1          1.5610    3.4000    6.6040 hc        1 MOL      0.052751
      5 H2          1.7660    1.6520    6.8630 hc        1 MOL      0.052751
      6 H3          3.1260    2.6280    6.2580 hc        1 MOL      0.052751
      7 N1          0.2310    2.2940    4.4140 n         1 MOL     -0.644621
      8 C3         -0.2990    2.2250    3.0780 c3        1 MOL      0.067721
      9 C4         -0.1250    3.5460    2.3250 c         1 MOL      0.574094
     10 O2         -0.6900    4.5820    2.6320 o         1 MOL     -0.555702
     11 C5         -1.7230    1.7780    3.2050 c3        1 MOL     -0.300479
     12 C6         -2.4060    1.3780    1.8940 c         1 MOL      0.677812
     13 O3         -3.4450    0.6930    1.9300 o         1 MOL     -0.680319
     14 O4         -1.8490    1.6990    0.7990 o         1 MOL     -0.680319
     15 H4         -0.3750    2.6230    5.1610 hn        1 MOL      0.326885
     16 H5          0.2710    1.4550    2.5590 h1        1 MOL      0.092402
     17 H6         -2.3300    2.6270    3.5410 hc        1 MOL      0.107784
     18 H7         -1.8360    0.9590    3.9170 hc        1 MOL      0.107784
     19 N2          0.5930    3.5640    1.1800 n         1 MOL     -0.252948
     20 C7          0.8850    4.7770    0.3800 c3        1 MOL     -0.007588
     21 C8         -0.3190    5.4080   -0.3300 c         1 MOL      0.475318
     22 O5         -0.3330    6.5940   -0.5510 o         1 MOL     -0.578061
     23 C9          2.1080    4.4490   -0.5330 c3        1 MOL      0.097501
     24 C10         2.9500    5.7820   -0.8580 c3        1 MOL     -0.362206
     25 C11         4.3290    5.3090   -1.4260 c3        1 MOL      0.007872
     26 C12         5.2510    6.4830   -1.6060 c3        1 MOL     -0.083195
     27 N3          4.8700    7.4920   -2.6450 n4        1 MOL     -0.382839
     28 H8          1.1410    2.7270    1.0150 hn        1 MOL      0.140645
     29 H9          1.2650    5.5420    1.0540 h1        1 MOL      0.066306
     30 H10         1.6330    4.0860   -1.4440 hc        1 MOL      0.030235
     31 H11         2.7310    3.6750   -0.0760 hc        1 MOL      0.030235
     32 H12         3.1300    6.3020    0.0790 hc        1 MOL      0.114851
     33 H13         2.4610    6.5140   -1.4970 hc        1 MOL      0.114851
     34 H14         4.2310    4.8020   -2.3860 hc        1 MOL      0.072082
     35 H15         4.7350    4.6100   -0.6840 hc        1 MOL      0.072082
     36 H16         6.1920    6.0450   -1.9530 hx        1 MOL      0.131806
     37 H17         5.3930    6.9450   -0.6320 hx        1 MOL      0.131806
     38 H18         4.5720    6.9820   -3.4620 hn        1 MOL      0.335506
     39 H19         4.1340    8.1070   -2.3230 hn        1 MOL      0.335506
     40 H20         5.6310    8.1020   -2.9190 hn        1 MOL      0.335506
     41 N4         -1.3820    4.6740   -0.5870 n         1 MOL     -0.074623
     42 C13        -2.6100    5.2970   -1.1450 c3        1 MOL     -0.193872
     43 C14        -3.9410    4.9330   -0.4600 c         1 MOL      0.446210
     44 O6         -5.0350    5.2690   -0.8010 o         1 MOL     -0.522529
     45 C15        -2.7960    4.9470   -2.5770 c3        1 MOL     -0.172758
     46 C16        -2.8870    3.4530   -2.8330 c         1 MOL      0.812141
     47 O7         -3.0000    3.1010   -3.9960 o         1 MOL     -0.744070
     48 O8         -2.7130    2.5930   -1.9620 o         1 MOL     -0.744070
     49 H21        -1.3570    3.7520   -0.1810 hn        1 MOL      0.102208
     50 H22        -2.6450    6.3800   -1.1980 h1        1 MOL      0.160728
     51 H23        -1.9970    5.2980   -3.2340 hc        1 MOL      0.049837
     52 H24        -3.6630    5.3810   -3.0710 hc        1 MOL      0.049837
     53 N5         -3.8090    4.1950    0.6430 n         1 MOL     -0.108657
     54 C17        -4.9050    3.9420    1.5720 c3        1 MOL     -0.226041
     55 C18        -5.9360    2.9070    1.1230 c         1 MOL      0.577971
     56 O9         -7.0320    2.8650    1.6300 o         1 MOL     -0.578834
     57 H25        -2.8580    3.8730    0.7930 hn        1 MOL      0.100698
     58 H26        -5.3650    4.9130    1.7430 h1        1 MOL      0.110946
     59 H27        -4.5310    3.5870    2.5370 h1        1 MOL      0.110946
     60 N6         -5.6250    2.0820    0.1510 n         1 MOL     -0.256347
     61 C19        -6.5520    1.2010   -0.5350 c3        1 MOL     -0.054518
     62 C20        -6.8270   -0.2150    0.2090 c         1 MOL      0.322266
     63 O10        -7.7850   -0.9330   -0.0510 o         1 MOL     -0.490311
     64 C21        -6.0620    1.0000   -1.9530 c3        1 MOL     -0.160339
     65 C22        -5.0930   -0.1500   -2.1250 c         1 MOL      0.684025
     66 N7         -5.3390   -1.0920   -3.0230 n         1 MOL     -0.751743
     67 O11        -4.0680   -0.1730   -1.4810 o         1 MOL     -0.754243
     68 H28        -4.7020    2.1760   -0.2560 hn        1 MOL      0.302121
     69 H29        -7.4890    1.7360   -0.6590 h1        1 MOL      0.126414
     70 H30        -5.6590    1.9640   -2.2740 hc        1 MOL      0.080222
     71 H31        -6.9700    0.7660   -2.4960 hc        1 MOL      0.080222
     72 H32        -6.1980   -1.0190   -3.5530 hn        1 MOL      0.357056
     73 H33        -4.7070   -1.8500   -3.2140 hn        1 MOL      0.357056
     74 N8         -5.9640   -0.5440    1.1870 n         1 MOL     -0.009021
     75 C23        -6.0560   -1.7080    2.1190 c3        1 MOL     -0.257633
     76 C24        -5.0910   -2.8170    1.8570 c         1 MOL      0.513755
     77 O12        -5.2630   -3.9630    2.3420 o         1 MOL     -0.547902
     78 H34        -5.1210    0.0080    1.2710 hn        1 MOL      0.108982
     79 H35        -7.0570   -2.1140    2.0310 h1        1 MOL      0.125667
     80 H36        -5.9810   -1.3650    3.1490 h1        1 MOL      0.125667
     81 N9         -4.0800   -2.5800    1.0070 n         1 MOL     -0.184023
     82 C25        -3.0480   -3.5230    0.7700 c3        1 MOL      0.169255
     83 C26        -1.6640   -2.8750    0.6810 c         1 MOL      0.368915
     84 O13        -1.5350   -1.6370    0.4550 o         1 MOL     -0.601658
     85 C27        -3.3950   -4.2410   -0.5600 c3        1 MOL      0.327526
     86 C28        -4.7070   -5.0370   -0.7440 ca        1 MOL     -0.263309
     87 C29        -5.8360   -4.3520   -1.1670 ca        1 MOL     -0.013342
     88 C30        -4.7840   -6.3940   -0.4950 ca        1 MOL     -0.013342
     89 C31        -7.0380   -5.0000   -1.2680 ca        1 MOL     -0.298030
     90 C32        -6.0310   -7.0660   -0.6710 ca        1 MOL     -0.298030
     91 C33        -7.1620   -6.3760   -1.0440 ca        1 MOL      0.383757
     92 O14        -8.4290   -6.9930   -1.2220 oh        1 MOL     -0.491800
     93 H37        -3.9480   -1.6540    0.6200 hn        1 MOL      0.227428
     94 H38        -2.9410   -4.2940    1.5390 h1        1 MOL     -0.023740
     95 H39        -2.5020   -4.8170   -0.8250 hc        1 MOL     -0.080004
     96 H40        -3.3630   -3.4820   -1.3450 hc        1 MOL     -0.080004
     97 H41        -5.7400   -3.2720   -1.2420 ha        1 MOL      0.082422
     98 H42        -3.9320   -6.9780   -0.1510 ha        1 MOL      0.082422
     99 H43        -7.9530   -4.4590   -1.4730 ha        1 MOL      0.148341
    100 H44        -6.1540   -8.1060   -0.3770 ha        1 MOL      0.148341
    101 H45        -8.3410   -7.9370   -1.1160 ho        1 MOL      0.338846
    102 N10        -0.6520   -3.6970    0.9440 n         1 MOL     -0.407139
    103 C34         0.7450   -3.1210    1.1630 c3        1 MOL     -0.114285
    104 C35         1.7670   -4.0210    0.6010 c         1 MOL      0.401961
    105 O15         1.6720   -5.2290    0.8040 o         1 MOL     -0.536960
    106 C36         1.1410   -2.8720    2.6240 c3        1 MOL      0.047626
    107 C37         0.2330   -1.6990    3.0180 c3        1 MOL      0.224017
    108 C38         2.6220   -2.5300    2.8910 c3        1 MOL     -0.025838
    109 C39         0.6970   -0.9880    4.3070 c3        1 MOL     -0.097406
    110 H46        -0.8080   -4.6870    1.0520 hn        1 MOL      0.315194
    111 H47         0.7720   -2.2030    0.5940 h1        1 MOL      0.341835
    112 H48         0.8730   -3.7090    3.2730 hc        1 MOL      0.004025
    113 H49        -0.7860   -2.0120    3.2230 hc        1 MOL     -0.046387
    114 H50         0.1810   -0.9870    2.2040 hc        1 MOL     -0.046387
    115 H51         3.2910   -3.3040    2.5240 hc        1 MOL     -0.009447
    116 H52         2.9290   -1.6460    2.3260 hc        1 MOL     -0.009447
    117 H53         2.8070   -2.3760    3.9490 hc        1 MOL     -0.009447
    118 H54         0.6140   -1.6740    5.1510 hc        1 MOL      0.008413
    119 H55         1.6940   -0.5850    4.1090 hc        1 MOL      0.008413
    120 H56         0.0180   -0.1550    4.5000 hc        1 MOL      0.008413
    121 N11         2.7370   -3.5190   -0.1580 n         1 MOL     -0.056266
    122 C40         3.8370   -4.2990   -0.6850 c3        1 MOL      0.038028
    123 C41         5.2230   -4.0050   -0.0190 c         1 MOL      0.490702
    124 O16         5.3550   -2.9590    0.6130 o         1 MOL     -0.394922
    125 C42         3.9910   -4.0870   -2.1420 c3        1 MOL     -0.169266
    126 O17         4.1400   -2.7490   -2.4500 oh        1 MOL     -0.366416
    127 H57         2.6190   -2.6010   -0.5610 hn        1 MOL      0.056966
    128 H58         3.6200   -5.3580   -0.5390 h1        1 MOL      0.047389
    129 H59         3.0630   -4.4210   -2.6040 h1        1 MOL      0.093307
    130 H60         4.7720   -4.7140   -2.5910 h1        1 MOL      0.093307
    131 H61         3.6470   -2.4780   -3.2360 ho        1 MOL      0.370886
    132 N12         6.3290   -4.7140   -0.3500 n         1 MOL     -0.525495
    133 C43         7.7050   -4.2960   -0.0530 c3        1 MOL      0.090534
    134 C44         8.0690   -2.8490   -0.5340 c         1 MOL      0.496673
    135 O18         8.7550   -2.1320    0.2040 o         1 MOL     -0.516542
    136 C45         8.7020   -5.3820   -0.5230 c3        1 MOL     -0.388804
    137 H62         6.1960   -5.4930   -0.9870 hn        1 MOL      0.314852
    138 H63         7.7770   -4.2220    1.0410 h1        1 MOL      0.116785
    139 H64         8.7300   -5.5930   -1.5930 hc        1 MOL      0.120077
    140 H65         9.6690   -5.0670   -0.1380 hc        1 MOL      0.120077
    141 H66         8.4720   -6.3630   -0.1000 hc        1 MOL      0.120077
    142 N13         7.5940   -2.4170   -1.6900 n         1 MOL     -0.423975
    143 C46         7.7300   -1.1080   -2.3110 c3        1 MOL      0.166010
    144 C47         6.9360    0.0310   -1.6030 c         1 MOL      0.348733
    145 O19         7.4290    1.1100   -1.4360 o         1 MOL     -0.509604
    146 C48         7.3740   -1.3070   -3.7880 c3        1 MOL     -0.294071
    147 H67         7.1170   -3.1250   -2.2360 hn        1 MOL      0.292192
    148 H68         8.7770   -0.8220   -2.3360 h1        1 MOL      0.085748
    149 H69         8.1160   -2.0300   -4.1380 hc        1 MOL      0.072759
    150 H70         6.5120   -1.9460   -3.9680 hc        1 MOL      0.072759
    151 H71         7.4050   -0.3960   -4.3930 hc        1 MOL      0.072759
    152 N14         5.7830   -0.2870   -0.9570 n         1 MOL      0.042701
    153 C49         5.0990    0.6060   -0.0470 c3        1 MOL     -0.097382
    154 C50         5.8440    0.7270    1.2900 c         1 MOL      0.522116
    155 O20         6.0180    1.7750    1.8390 o         1 MOL     -0.551027
    156 C51         3.6420    0.1640    0.1400 c3        1 MOL      0.210702
    157 C52         2.9070    0.5090   -1.1640 c3        1 MOL      0.030384
    158 C53         1.4210    0.1190   -0.8780 c         1 MOL      0.467639
    159 O21         0.9430   -0.9010   -1.3640 o         1 MOL     -0.623153
    160 O22         0.7570    0.9370   -0.1960 o         1 MOL     -0.623153
    161 H72         5.2680   -1.1220   -1.1860 hn        1 MOL     -0.045250
    162 H73         5.0780    1.6340   -0.4120 h1        1 MOL      0.025186
    163 H74         3.2580    0.7410    0.9850 hc        1 MOL     -0.008556
    164 H75         3.5670   -0.8850    0.4280 hc        1 MOL     -0.008556
    165 H76         3.3680   -0.0710   -1.9600 hc        1 MOL     -0.063410
    166 H77         3.0040    1.5610   -1.4470 hc        1 MOL     -0.063410
    167 N15         6.4920   -0.3480    1.7490 n         1 MOL     -0.089028
    168 C54         7.3150   -0.3890    2.9620 c3        1 MOL     -0.506674
    169 H78         6.8490    0.2180    3.7370 h1        1 MOL      0.172462
    170 H79         7.3990   -1.4180    3.3100 h1        1 MOL      0.172462
    171 H80         8.3080    0.0030    2.7410 h1        1 MOL      0.172462
    172 H81         6.3800   -1.1930    1.2200 hn        1 MOL      0.105517
    173 Ca1        -1.4390    0.4170   -1.3580 Ca        1 MOL      1.795512
    174 O23        -1.4480   -2.0300   -2.5840 oh        1 MOL     -0.841721
    175 H82        -2.3000   -2.0340   -3.0200 ho        1 MOL      0.400020
    176 H83        -0.9900   -2.7770   -2.9550 ho        1 MOL      0.400020
    177 O24        -2.0090    0.7060   -3.9510 oh        1 MOL     -0.841721
    178 H84        -1.7930    0.3200   -4.7950 ho        1 MOL      0.400020
    179 H85        -2.4840    1.5140   -4.1660 ho        1 MOL      0.400020
    180 O25         0.1010    2.5870   -2.8560 oh        1 MOL     -0.841721
    181 H86        -0.0150    3.4380   -2.4450 ho        1 MOL      0.400020
    182 H87         0.1390    2.7730   -3.7900 ho        1 MOL      0.400020
@<TRIPOS>BOND
     1    1    2 1   
     2    1    4 1   
     3    1    5 1   
     4    1    6 1   
     5    2    3 2   
     6    2    7 1   
     7    7    8 1   
     8    7   15 1   
     9    8    9 1   
    10    8   11 1   
    11    8   16 1   
    12    9   10 2   
    13    9   19 1   
    14   11   12 1   
    15   11   17 1   
    16   11   18 1   
    17   12   13 1   
    18   12   14 1   
    19   19   20 1   
    20   19   28 1   
    21   20   21 1   
    22   20   23 1   
    23   20   29 1   
    24   21   22 2   
    25   21   41 1   
    26   23   24 1   
    27   23   30 1   
    28   23   31 1   
    29   24   25 1   
    30   24   32 1   
    31   24   33 1   
    32   25   26 1   
    33   25   34 1   
    34   25   35 1   
    35   26   27 1   
    36   26   36 1   
    37   26   37 1   
    38   27   38 1   
    39   27   39 1   
    40   27   40 1   
    41   41   42 1   
    42   41   49 1   
    43   42   43 1   
    44   42   45 1   
    45   42   50 1   
    46   43   44 2   
    47   43   53 1   
    48   45   46 1   
    49   45   51 1   
    50   45   52 1   
    51   46   47 1   
    52   46   48 1   
    53   53   54 1   
    54   53   57 1   
    55   54   55 1   
    56   54   58 1   
    57   54   59 1   
    58   55   56 2   
    59   55   60 1   
    60   60   61 1   
    61   60   68 1   
    62   61   62 1   
    63   61   64 1   
    64   61   69 1   
    65   62   63 2   
    66   62   74 1   
    67   64   65 1   
    68   64   70 1   
    69   64   71 1   
    70   65   66 1   
    71   65   67 2   
    72   66   72 1   
    73   66   73 1   
    74   74   75 1   
    75   74   78 1   
    76   75   76 1   
    77   75   79 1   
    78   75   80 1   
    79   76   77 2   
    80   76   81 1   
    81   81   82 1   
    82   81   93 1   
    83   82   83 1   
    84   82   85 1   
    85   82   94 1   
    86   83   84 2   
    87   83  102 1   
    88   85   86 1   
    89   85   95 1   
    90   85   96 1   
    91   86   87 ar  
    92   86   88 ar  
    93   87   89 ar  
    94   87   97 1   
    95   88   90 ar  
    96   88   98 1   
    97   89   91 ar  
    98   89   99 1   
    99   90   91 ar  
   100   90  100 1   
   101   91   92 1   
   102   92  101 1   
   103  102  103 1   
   104  102  110 1   
   105  103  104 1   
   106  103  106 1   
   107  103  111 1   
   108  104  105 2   
   109  104  121 1   
   110  106  107 1   
   111  106  108 1   
   112  106  112 1   
   113  107  109 1   
   114  107  113 1   
   115  107  114 1   
   116  108  115 1   
   117  108  116 1   
   118  108  117 1   
   119  109  118 1   
   120  109  119 1   
   121  109  120 1   
   122  121  122 1   
   123  121  127 1   
   124  122  123 1   
   125  122  125 1   
   126  122  128 1   
   127  123  124 2   
   128  123  132 1   
   129  125  126 1   
   130  125  129 1   
   131  125  130 1   
   132  126  131 1   
   133  132  133 1   
   134  132  137 1   
   135  133  134 1   
   136  133  136 1   
   137  133  138 1   
   138  134  135 2   
   139  134  142 1   
   140  136  139 1   
   141  136  140 1   
   142  136  141 1   
   143  142  143 1   
   144  142  147 1   
   145  143  144 1   
   146  143  146 1   
   147  143  148 1   
   148  144  145 2   
   149  144  152 1   
   150  146  149 1   
   151  146  150 1   
   152  146  151 1   
   153  152  153 1   
   154  152  161 1   
   155  153  154 1   
   156  153  156 1   
   157  153  162 1   
   158  154  155 2   
   159  154  167 1   
   160  156  157 1   
   161  156  163 1   
   162  156  164 1   
   163  157  158 1   
   164  157  165 1   
   165  157  166 1   
   166  158  159 1   
   167  158  160 1   
   168  167  168 1   
   169  167  172 1   
   170  168  169 1   
   171  168  170 1   
   172  168  171 1   
   173  174  175 1   
   174  174  176 1   
   175  177  178 1   
   176  177  179 1   
   177  180  181 1   
   178  180  182 1   
@<TRIPOS>SUBSTRUCTURE
     1 MOL         1 TEMP              0 ****  ****    0 ROOT
