@<TRIPOS>MOLECULE
MOL
  189   185     1     0     0
SMALL
resp


@<TRIPOS>ATOM
      1 C1         -1.3330    2.1640    6.2320 c3        1 MOL     -0.305314
      2 C2         -1.3240    2.0350    4.6690 c         1 MOL      0.679041
      3 O1         -0.3120    2.3820    4.0740 o         1 MOL     -0.576335
      4 H1         -0.3290    1.9850    6.6170 hc        1 MOL      0.079842
      5 H2         -1.6550    3.1670    6.5110 hc        1 MOL      0.079842
      6 H3         -2.0200    1.4310    6.6540 hc        1 MOL      0.079842
      7 N1         -2.3480    1.4070    4.0790 n         1 MOL     -0.616176
      8 C3         -2.5800    1.3940    2.6720 c3        1 MOL      0.104994
      9 C4         -2.8670    2.8500    2.1560 c         1 MOL      0.452101
     10 O2         -3.5300    3.6580    2.7890 o         1 MOL     -0.567287
     11 C5         -3.7130    0.4760    2.3170 c3        1 MOL     -0.121609
     12 C6         -4.2240    0.7180    0.9100 c         1 MOL      0.712252
     13 O3         -5.4630    0.9780    0.8180 o         1 MOL     -0.662964
     14 O4         -3.4440    0.7430   -0.0910 o         1 MOL     -0.662964
     15 H4         -3.0680    1.0890    4.7070 hn        1 MOL      0.346280
     16 H5         -1.6330    1.0770    2.2410 h1        1 MOL      0.037210
     17 H6         -4.4450    0.6260    3.1090 hc        1 MOL      0.029309
     18 H7         -3.4330   -0.5670    2.3970 hc        1 MOL      0.029309
     19 N2         -2.2360    3.2140    1.0340 n         1 MOL     -0.021947
     20 C7         -2.2180    4.4930    0.2960 c3        1 MOL     -0.046694
     21 C8         -2.8690    4.4900   -1.0530 c         1 MOL      0.721080
     22 O5         -2.8960    5.4790   -1.7580 o         1 MOL     -0.587513
     23 C9         -0.8410    5.0280    0.2010 c3        1 MOL     -0.082642
     24 C10        -0.3710    5.3520    1.5950 c3        1 MOL      0.107304
     25 C11         1.0240    5.9560    1.5790 c3        1 MOL      0.087613
     26 C12         1.5760    6.3370    2.9500 c3        1 MOL      0.023576
     27 N3          0.8160    7.4200    3.5970 n4        1 MOL     -0.436740
     28 H8         -1.5970    2.5560    0.6020 hn        1 MOL      0.078508
     29 H9         -2.9400    5.1510    0.7840 h1        1 MOL      0.041569
     30 H10        -0.8720    6.0190   -0.2520 hc        1 MOL      0.026935
     31 H11        -0.1690    4.3980   -0.3870 hc        1 MOL      0.026935
     32 H12        -0.3260    4.4230    2.1630 hc        1 MOL     -0.031851
     33 H13        -1.0690    6.0230    2.1080 hc        1 MOL     -0.031851
     34 H14         1.0400    6.8680    0.9820 hc        1 MOL     -0.010716
     35 H15         1.7760    5.2230    1.2750 hc        1 MOL     -0.010716
     36 H16         2.5960    6.6710    2.7280 hx        1 MOL      0.084306
     37 H17         1.6590    5.4330    3.5610 hx        1 MOL      0.084306
     38 H18         1.2890    7.6750    4.4530 hn        1 MOL      0.343762
     39 H19         0.7210    8.2520    3.0470 hn        1 MOL      0.343762
     40 H20        -0.1190    7.0920    3.7880 hn        1 MOL      0.343762
     41 N4         -3.6070    3.3750   -1.3370 n         1 MOL     -0.652889
     42 C13        -4.3500    3.2650   -2.5960 c3        1 MOL      0.265666
     43 C14        -5.8860    3.1940   -2.3680 c         1 MOL      0.268982
     44 O6         -6.6800    3.5090   -3.2830 o         1 MOL     -0.504603
     45 C15        -3.9570    2.0190   -3.4840 c3        1 MOL      0.116528
     46 C16        -2.5680    1.8210   -3.8820 c         1 MOL      0.491683
     47 O7         -1.6990    1.4330   -3.0220 o         1 MOL     -0.576425
     48 O8         -2.1290    2.1590   -5.0100 o         1 MOL     -0.576425
     49 H21        -3.5940    2.6270   -0.6540 hn        1 MOL      0.205501
     50 H22        -4.1740    4.1450   -3.2170 h1        1 MOL      0.035812
     51 H23        -4.6090    2.1900   -4.3440 hc        1 MOL     -0.015054
     52 H24        -4.3310    1.1270   -2.9980 hc        1 MOL     -0.015054
     53 N5         -6.3470    2.6450   -1.2730 n         1 MOL     -0.082068
     54 C17        -7.6900    2.1340   -1.2240 c3        1 MOL     -0.316422
     55 C18        -7.7730    0.7910   -1.8700 c         1 MOL      0.658900
     56 O9         -8.6390    0.5190   -2.6920 o         1 MOL     -0.572267
     57 H25        -5.7860    2.4190   -0.4700 hn        1 MOL      0.183562
     58 H26        -8.3110    2.8930   -1.7160 h1        1 MOL      0.114796
     59 H27        -7.9690    1.9900   -0.1770 h1        1 MOL      0.114796
     60 N6         -6.8680   -0.1440   -1.5390 n         1 MOL     -0.473205
     61 C19        -6.8560   -1.6080   -1.8270 c3        1 MOL     -0.028789
     62 C20        -6.6780   -2.5580   -0.5980 c         1 MOL      0.373960
     63 O10        -6.6290   -3.7960   -0.9080 o         1 MOL     -0.483144
     64 C21        -5.7770   -1.7670   -2.9540 c3        1 MOL     -0.143293
     65 C22        -4.2560   -1.7160   -2.4700 c         1 MOL      0.774721
     66 O11        -3.3670   -1.4090   -3.2790 o         1 MOL     -0.770626
     67 O12        -3.8760   -1.9420   -1.2610 o         1 MOL     -0.770626
     68 H28        -6.1600    0.2030   -0.9100 hn        1 MOL      0.336582
     69 H29        -7.8310   -1.8330   -2.2460 h1        1 MOL      0.119481
     70 H30        -6.0310   -1.0880   -3.7740 hc        1 MOL      0.070666
     71 H31        -5.9560   -2.7620   -3.3730 hc        1 MOL      0.070666
     72 N7         -6.5540   -2.0320    0.6570 n         1 MOL     -0.200690
     73 C23        -6.4140   -2.8610    1.8420 c3        1 MOL     -0.201143
     74 C24        -5.2590   -3.8440    1.7860 c         1 MOL      0.454129
     75 O13        -5.3700   -4.8360    2.5260 o         1 MOL     -0.522578
     76 H32        -6.6300   -1.0540    0.8820 hn        1 MOL      0.198752
     77 H33        -7.3490   -3.4270    1.8870 h1        1 MOL      0.119772
     78 H34        -6.3700   -2.2060    2.7110 h1        1 MOL      0.119772
     79 N8         -4.1570   -3.5190    1.0470 n         1 MOL     -0.065104
     80 C25        -2.9040   -4.2000    0.9890 c3        1 MOL     -0.439211
     81 C26        -1.6720   -3.2430    0.9980 c         1 MOL      0.739095
     82 O14        -1.6450   -2.1300    0.4530 o         1 MOL     -0.635970
     83 C27        -2.7910   -5.2490   -0.1160 c3        1 MOL      0.431448
     84 C28        -3.7880   -6.4600   -0.1890 c3        1 MOL     -0.482764
     85 O15        -3.1160   -4.5780   -1.2820 oh        1 MOL     -0.560691
     86 H35        -4.2950   -2.6620    0.5350 hn        1 MOL      0.164642
     87 H36        -2.8480   -4.6910    1.9620 h1        1 MOL      0.119135
     88 H37        -1.7680   -5.6380   -0.1650 h1        1 MOL      0.009825
     89 H38        -3.7870   -3.9510   -0.9840 ho        1 MOL      0.366167
     90 H39        -3.4220   -7.1680   -0.9280 hc        1 MOL      0.129563
     91 H40        -3.8740   -6.9880    0.7640 hc        1 MOL      0.129563
     92 H41        -4.8200   -6.1970   -0.4290 hc        1 MOL      0.129563
     93 N9         -0.6020   -3.6540    1.7240 n         1 MOL     -0.441007
     94 C29         0.6720   -2.8250    1.8770 c3        1 MOL      0.049908
     95 C30         1.8180   -3.4540    1.0700 c         1 MOL      0.320640
     96 O16         2.0860   -4.6250    1.2230 o         1 MOL     -0.524394
     97 C31         1.0590   -2.7940    3.3410 c3        1 MOL      0.084691
     98 C32         0.0420   -2.0010    4.1770 c3        1 MOL     -0.009792
     99 C33         2.4480   -2.4200    3.6110 c3        1 MOL     -0.201615
    100 C34         0.1080   -2.4160    5.7200 c3        1 MOL     -0.334173
    101 H42        -0.6380   -4.5170    2.2480 hn        1 MOL      0.278037
    102 H43         0.6110   -1.7780    1.5600 h1        1 MOL      0.047427
    103 H44         0.9860   -3.8140    3.7240 hc        1 MOL      0.030635
    104 H45        -0.9380   -2.2870    3.8060 hc        1 MOL      0.045350
    105 H46         0.2250   -0.9240    4.0810 hc        1 MOL      0.045350
    106 H47         2.6410   -1.4940    3.0620 hc        1 MOL      0.062056
    107 H48         2.5820   -2.2500    4.6840 hc        1 MOL      0.062056
    108 H49         3.1850   -3.1780    3.3510 hc        1 MOL      0.062056
    109 H50         0.9940   -1.9130    6.1080 hc        1 MOL      0.084777
    110 H51        -0.7060   -2.0950    6.3680 hc        1 MOL      0.084777
    111 H52         0.3090   -3.4880    5.8530 hc        1 MOL      0.084777
    112 N10         2.5140   -2.6970    0.2050 n         1 MOL      0.062527
    113 C35         3.7110   -2.9660   -0.5760 c3        1 MOL     -0.055104
    114 C36         4.9730   -2.4580    0.1240 c         1 MOL      0.361870
    115 O17         5.0270   -1.8860    1.2250 o         1 MOL     -0.317714
    116 C37         3.5730   -2.4340   -1.9400 c3        1 MOL      0.381665
    117 C38         2.5210   -3.0160   -2.8630 c3        1 MOL     -0.019655
    118 O18         3.2490   -0.9800   -1.9460 oh        1 MOL     -0.753485
    119 H53         2.2020   -1.7370    0.1380 hn        1 MOL     -0.104873
    120 H54         3.7760   -4.0390   -0.7110 h1        1 MOL      0.060246
    121 H55         4.5410   -2.6150   -2.4050 h1        1 MOL     -0.024926
    122 H56         2.4050   -0.8300   -1.5030 ho        1 MOL      0.546405
    123 H57         2.3290   -2.3530   -3.7120 hc        1 MOL     -0.015083
    124 H58         2.8790   -3.9730   -3.2410 hc        1 MOL     -0.015083
    125 H59         1.5610   -3.0890   -2.3650 hc        1 MOL     -0.015083
    126 N11         6.1190   -2.6640   -0.5850 n         1 MOL     -0.394292
    127 C39         7.3770   -2.0650   -0.1170 c3        1 MOL     -0.088568
    128 C40         7.2610   -0.5190   -0.0140 c         1 MOL      0.331587
    129 O19         7.5930   -0.0700    1.0910 o         1 MOL     -0.484239
    130 C41         8.4700   -2.3020   -1.1430 c3        1 MOL      0.313665
    131 C42         8.9710   -3.7330   -1.0780 c3        1 MOL     -0.471153
    132 O20         8.0550   -2.0990   -2.4540 oh        1 MOL     -0.587071
    133 H60         6.0930   -3.0520   -1.5220 hn        1 MOL      0.307641
    134 H61         7.6300   -2.4330    0.8780 h1        1 MOL      0.159273
    135 H62         9.2780   -1.5810   -0.9810 h1        1 MOL      0.019503
    136 H63         8.7550   -1.5780   -2.8430 ho        1 MOL      0.373588
    137 H64         9.2620   -3.9180   -0.0450 hc        1 MOL      0.136105
    138 H65         8.1610   -4.3490   -1.4750 hc        1 MOL      0.136105
    139 H66         9.8710   -3.8440   -1.6890 hc        1 MOL      0.136105
    140 N12         6.6510    0.1480   -0.9850 n         1 MOL     -0.167095
    141 C43         6.3530    1.6000   -1.0590 c3        1 MOL     -0.124426
    142 C44         5.4380    2.0560    0.0850 c         1 MOL      0.521404
    143 O21         5.1710    3.2630    0.2390 o         1 MOL     -0.556965
    144 C45         5.6460    1.8020   -2.4100 c3        1 MOL     -0.141268
    145 C46         6.5090    1.2880   -3.6220 c3        1 MOL     -0.303020
    146 C47         7.8280    2.1220   -3.7200 c3        1 MOL      0.159333
    147 C48         8.6140    1.8600   -4.9480 c3        1 MOL     -0.041337
    148 N13        10.0030    2.3370   -4.7650 n4        1 MOL     -0.229124
    149 H67         6.3890   -0.4300   -1.7700 hn        1 MOL      0.246787
    150 H68         7.2550    2.2020   -0.9890 h1        1 MOL      0.130719
    151 H69         5.2020    2.7780   -2.5780 hc        1 MOL      0.125438
    152 H70         4.7370    1.1970   -2.4000 hc        1 MOL      0.125438
    153 H71         5.8380    1.4180   -4.4710 hc        1 MOL      0.110051
    154 H72         6.6510    0.2180   -3.6100 hc        1 MOL      0.110051
    155 H73         8.4110    1.7950   -2.8530 hc        1 MOL     -0.011610
    156 H74         7.6850    3.1720   -3.5080 hc        1 MOL     -0.011610
    157 H75         8.0350    2.4280   -5.6910 hx        1 MOL      0.091880
    158 H76         8.4240    0.8210   -5.2170 hx        1 MOL      0.091880
    159 H77        10.5600    2.1930   -5.5860 hn        1 MOL      0.237253
    160 H78         9.9320    3.3310   -4.5660 hn        1 MOL      0.237253
    161 H79        10.4860    1.9290   -3.9770 hn        1 MOL      0.237253
    162 N14         5.0170    1.0830    0.9620 n         1 MOL     -0.102942
    163 C49         3.9430    1.2820    1.9240 c3        1 MOL     -0.310288
    164 C50         4.3690    0.7770    3.3430 c         1 MOL      0.477173
    165 O22         3.6860    1.1800    4.3210 o         1 MOL     -0.526258
    166 C51         2.6660    0.6700    1.4600 c3        1 MOL      0.179411
    167 C52         2.2270    1.4660    0.2250 c3        1 MOL     -0.059351
    168 C53         0.9270    0.8640   -0.3540 c         1 MOL      0.635632
    169 O23         1.0180   -0.3220   -0.6860 o         1 MOL     -0.681633
    170 O24        -0.1470    1.4950   -0.3620 o         1 MOL     -0.681633
    171 H80         5.3860    0.1400    0.8910 hn        1 MOL     -0.145603
    172 H81         3.8400    2.3600    2.1060 h1        1 MOL      0.172287
    173 H82         1.8880    0.7340    2.2210 hc        1 MOL      0.079395
    174 H83         2.9190   -0.3240    1.0970 hc        1 MOL      0.079395
    175 H84         2.9760    1.4380   -0.5760 hc        1 MOL      0.022349
    176 H85         2.0080    2.4850    0.5420 hc        1 MOL      0.022349
    177 N15         5.4780    0.0140    3.4440 n         1 MOL     -0.319000
    178 C54         5.7690   -0.8410    4.5630 c3        1 MOL     -0.011433
    179 H86         6.8200   -0.7400    4.8330 h1        1 MOL      0.042267
    180 H87         5.1480   -0.5550    5.4120 h1        1 MOL      0.042267
    181 H88         5.5620   -1.8770    4.2940 h1        1 MOL      0.042267
    182 H89         5.8440   -0.3590    2.5840 hn        1 MOL      0.302729
    183 Ca1        -1.5600   -0.4950   -1.5730 Ca        1 MOL      1.723636
    184 O25        -1.0010   -3.0480   -2.3750 oh        1 MOL     -0.824419
    185 H90        -0.5780   -3.5010   -3.1060 ho        1 MOL      0.405305
    186 H91        -1.7280   -3.6150   -2.1240 ho        1 MOL      0.405305
    187 O26         0.3470   -0.7010   -3.7250 oh        1 MOL     -0.824419
    188 H92         0.7670   -0.0920   -4.3270 ho        1 MOL      0.405305
    189 H93         0.2350   -1.5020   -4.2360 ho        1 MOL      0.405305
@<TRIPOS>BOND
     1    1    2 1   
     2    1    4 1   
     3    1    5 1   
     4    1    6 1   
     5    2    3 2   
     6    2    7 1   
     7    7    8 1   
     8    7   15 1   
     9    8    9 1   
    10    8   11 1   
    11    8   16 1   
    12    9   10 2   
    13    9   19 1   
    14   11   12 1   
    15   11   17 1   
    16   11   18 1   
    17   12   13 1   
    18   12   14 1   
    19   19   20 1   
    20   19   28 1   
    21   20   21 1   
    22   20   23 1   
    23   20   29 1   
    24   21   22 2   
    25   21   41 1   
    26   23   24 1   
    27   23   30 1   
    28   23   31 1   
    29   24   25 1   
    30   24   32 1   
    31   24   33 1   
    32   25   26 1   
    33   25   34 1   
    34   25   35 1   
    35   26   27 1   
    36   26   36 1   
    37   26   37 1   
    38   27   38 1   
    39   27   39 1   
    40   27   40 1   
    41   41   42 1   
    42   41   49 1   
    43   42   43 1   
    44   42   45 1   
    45   42   50 1   
    46   43   44 2   
    47   43   53 1   
    48   45   46 1   
    49   45   51 1   
    50   45   52 1   
    51   46   47 1   
    52   46   48 1   
    53   53   54 1   
    54   53   57 1   
    55   54   55 1   
    56   54   58 1   
    57   54   59 1   
    58   55   56 2   
    59   55   60 1   
    60   60   61 1   
    61   60   68 1   
    62   61   62 1   
    63   61   64 1   
    64   61   69 1   
    65   62   63 2   
    66   62   72 1   
    67   64   65 1   
    68   64   70 1   
    69   64   71 1   
    70   65   66 1   
    71   65   67 1   
    72   72   73 1   
    73   72   76 1   
    74   73   74 1   
    75   73   77 1   
    76   73   78 1   
    77   74   75 2   
    78   74   79 1   
    79   79   80 1   
    80   79   86 1   
    81   80   81 1   
    82   80   83 1   
    83   80   87 1   
    84   81   82 2   
    85   81   93 1   
    86   83   84 1   
    87   83   85 1   
    88   83   88 1   
    89   84   90 1   
    90   84   91 1   
    91   84   92 1   
    92   85   89 1   
    93   93   94 1   
    94   93  101 1   
    95   94   95 1   
    96   94   97 1   
    97   94  102 1   
    98   95   96 2   
    99   95  112 1   
   100   97   98 1   
   101   97   99 1   
   102   97  103 1   
   103   98  100 1   
   104   98  104 1   
   105   98  105 1   
   106   99  106 1   
   107   99  107 1   
   108   99  108 1   
   109  100  109 1   
   110  100  110 1   
   111  100  111 1   
   112  112  113 1   
   113  112  119 1   
   114  113  114 1   
   115  113  116 1   
   116  113  120 1   
   117  114  115 2   
   118  114  126 1   
   119  116  117 1   
   120  116  118 1   
   121  116  121 1   
   122  117  123 1   
   123  117  124 1   
   124  117  125 1   
   125  118  122 1   
   126  126  127 1   
   127  126  133 1   
   128  127  128 1   
   129  127  130 1   
   130  127  134 1   
   131  128  129 2   
   132  128  140 1   
   133  130  131 1   
   134  130  132 1   
   135  130  135 1   
   136  131  137 1   
   137  131  138 1   
   138  131  139 1   
   139  132  136 1   
   140  140  141 1   
   141  140  149 1   
   142  141  142 1   
   143  141  144 1   
   144  141  150 1   
   145  142  143 2   
   146  142  162 1   
   147  144  145 1   
   148  144  151 1   
   149  144  152 1   
   150  145  146 1   
   151  145  153 1   
   152  145  154 1   
   153  146  147 1   
   154  146  155 1   
   155  146  156 1   
   156  147  148 1   
   157  147  157 1   
   158  147  158 1   
   159  148  159 1   
   160  148  160 1   
   161  148  161 1   
   162  162  163 1   
   163  162  171 1   
   164  163  164 1   
   165  163  166 1   
   166  163  172 1   
   167  164  165 2   
   168  164  177 1   
   169  166  167 1   
   170  166  173 1   
   171  166  174 1   
   172  167  168 1   
   173  167  175 1   
   174  167  176 1   
   175  168  169 1   
   176  168  170 1   
   177  177  178 1   
   178  177  182 1   
   179  178  179 1   
   180  178  180 1   
   181  178  181 1   
   182  184  185 1   
   183  184  186 1   
   184  187  188 1   
   185  187  189 1   
@<TRIPOS>SUBSTRUCTURE
     1 MOL         1 TEMP              0 ****  ****    0 ROOT
