@<TRIPOS>MOLECULE
MOL
  175   173     1     0     0
SMALL
resp


@<TRIPOS>ATOM
      1 C1          0.7030    4.3180    5.3800 c3        1 MOL     -0.433551
      2 C2          0.0600    4.2290    3.9340 c         1 MOL      0.736349
      3 O1          0.7940    4.2850    2.9640 o         1 MOL     -0.552946
      4 H1          0.6270    5.3400    5.7490 hc        1 MOL      0.102612
      5 H2          0.1730    3.6480    6.0560 hc        1 MOL      0.102612
      6 H3          1.7540    4.0290    5.3300 hc        1 MOL      0.102612
      7 N1         -1.2410    4.1650    3.8280 n         1 MOL     -0.650695
      8 C3         -1.9200    3.7430    2.6190 c3        1 MOL      0.203338
      9 C4         -1.9000    4.8800    1.5500 c         1 MOL      0.488699
     10 O2         -2.2560    6.0350    1.8460 o         1 MOL     -0.592424
     11 C5         -3.2650    3.2540    2.9350 c3        1 MOL     -0.243961
     12 C6         -3.8530    2.3950    1.8140 c         1 MOL      0.741308
     13 O3         -4.9560    1.8650    2.0800 o         1 MOL     -0.692252
     14 O4         -3.2520    2.1630    0.7480 o         1 MOL     -0.692252
     15 H4         -1.8160    4.1310    4.6570 hn        1 MOL      0.330255
     16 H5         -1.3060    2.9150    2.2680 h1        1 MOL      0.050602
     17 H6         -3.9840    4.0560    3.1080 hc        1 MOL      0.054200
     18 H7         -3.2470    2.6780    3.8530 hc        1 MOL      0.054200
     19 N2         -1.6760    4.5400    0.2860 n         1 MOL     -0.239433
     20 C7         -1.8000    5.4460   -0.8570 c3        1 MOL      0.064194
     21 C8         -2.8400    5.0590   -1.8820 c         1 MOL      0.554256
     22 O5         -2.9410    5.8450   -2.7910 o         1 MOL     -0.577849
     23 C9         -0.4670    5.4380   -1.5470 c3        1 MOL     -0.152452
     24 H8         -1.3310    3.5990    0.1230 hn        1 MOL      0.212999
     25 H9         -2.0350    6.4430   -0.4840 h1        1 MOL      0.064250
     26 H10        -0.2010    4.4810   -2.0160 hc        1 MOL      0.042642
     27 H11        -0.3690    6.1950   -2.3160 hc        1 MOL      0.042642
     28 H12         0.3540    5.6890   -0.8730 hc        1 MOL      0.042642
     29 N3         -3.7330    4.0250   -1.7980 n         1 MOL     -0.426812
     30 C10        -4.7060    3.6340   -2.9300 c3        1 MOL      0.116598
     31 C11        -5.9550    2.9560   -2.4100 c         1 MOL      0.378841
     32 O6         -6.9950    3.1350   -3.0380 o         1 MOL     -0.564164
     33 C12        -3.9270    2.5830   -3.9080 c3        1 MOL     -0.051215
     34 C13        -3.1000    1.5200   -3.0890 c         1 MOL      0.675188
     35 O7         -2.0050    1.1900   -3.5820 o         1 MOL     -0.662424
     36 O8         -3.5760    0.8940   -2.1010 o         1 MOL     -0.662424
     37 H13        -3.7260    3.5310   -0.9160 hn        1 MOL      0.144181
     38 H14        -5.0020    4.5030   -3.5120 h1        1 MOL      0.070069
     39 H15        -3.3880    3.1650   -4.6640 hc        1 MOL      0.008200
     40 H16        -4.6600    1.9510   -4.4210 hc        1 MOL      0.008200
     41 N4         -5.9150    2.2210   -1.3010 n         1 MOL     -0.136974
     42 C14        -7.0350    1.6000   -0.7200 c3        1 MOL     -0.137332
     43 C15        -7.1730    0.1200   -1.0950 c         1 MOL      0.531638
     44 O9         -8.2680   -0.4010   -0.9580 o         1 MOL     -0.626163
     45 H17        -5.0730    1.9990   -0.7980 hn        1 MOL      0.169802
     46 H18        -7.9420    2.1790   -0.8930 h1        1 MOL      0.087885
     47 H19        -6.9420    1.6650    0.3630 h1        1 MOL      0.087885
     48 N5         -6.1600   -0.5480   -1.5640 n         1 MOL     -0.275074
     49 C16        -6.3610   -1.8420   -2.1800 c3        1 MOL      0.087128
     50 C17        -6.5330   -3.0090   -1.1810 c         1 MOL      0.349116
     51 O10        -6.9430   -4.0840   -1.5740 o         1 MOL     -0.523471
     52 C18        -5.2390   -1.9750   -3.2310 c3        1 MOL     -0.360119
     53 C19        -3.9000   -2.4140   -2.5440 c         1 MOL      0.780338
     54 N6         -3.0740   -3.2430   -3.1940 n         1 MOL     -0.730232
     55 O11        -3.4980   -1.9050   -1.4850 o         1 MOL     -0.691557
     56 H20        -5.2080   -0.2330   -1.5010 hn        1 MOL      0.185393
     57 H21        -7.2850   -1.7790   -2.7690 h1        1 MOL      0.123335
     58 H22        -4.9070   -1.1110   -3.7990 hc        1 MOL      0.103565
     59 H23        -5.5560   -2.8530   -3.7970 hc        1 MOL      0.103565
     60 H24        -3.2590   -3.6470   -4.0930 hn        1 MOL      0.353001
     61 H25        -2.2280   -3.5450   -2.7150 hn        1 MOL      0.353001
     62 N7         -6.5070   -2.7340    0.1330 n         1 MOL     -0.084445
     63 C20        -6.6940   -3.6080    1.2900 c3        1 MOL     -0.208054
     64 C21        -5.4440   -4.1930    1.9740 c         1 MOL      0.497517
     65 O12        -5.4680   -4.6560    3.1170 o         1 MOL     -0.572158
     66 H26        -6.4160   -1.7490    0.3420 hn        1 MOL      0.172506
     67 H27        -7.2950   -4.4420    0.9430 h1        1 MOL      0.109497
     68 H28        -7.3360   -3.1730    2.0560 h1        1 MOL      0.109497
     69 N8         -4.2360   -4.0140    1.3790 n         1 MOL     -0.201273
     70 C22        -2.8820   -4.5690    1.6380 c3        1 MOL     -0.190798
     71 C23        -1.8350   -3.4690    1.5260 c         1 MOL      0.617264
     72 O13        -2.0560   -2.4270    0.9490 o         1 MOL     -0.568811
     73 C24        -2.6100   -5.7130    0.7260 c3        1 MOL      0.651876
     74 C25        -3.1670   -7.1100    1.1580 c3        1 MOL     -0.414860
     75 O14        -3.1280   -5.4860   -0.5820 oh        1 MOL     -0.682021
     76 H29        -4.2020   -3.4740    0.5230 hn        1 MOL      0.173762
     77 H30        -2.8030   -4.9880    2.6390 h1        1 MOL      0.091590
     78 H31        -1.5500   -5.8950    0.5720 h1        1 MOL     -0.077599
     79 H32        -2.6640   -4.7520   -1.0010 ho        1 MOL      0.376291
     80 H33        -2.6010   -7.8970    0.6660 hc        1 MOL      0.095168
     81 H34        -2.9790   -7.1410    2.2300 hc        1 MOL      0.095168
     82 H35        -4.2050   -7.2220    0.8520 hc        1 MOL      0.095168
     83 N9         -0.6880   -3.7300    2.1040 n         1 MOL     -0.544904
     84 C26         0.5080   -2.9290    1.9610 c3        1 MOL      0.260396
     85 C27         1.2930   -3.1880    0.6120 c         1 MOL      0.525753
     86 O15         1.4450   -4.2630    0.1400 o         1 MOL     -0.558767
     87 C28         1.2890   -2.8200    3.2550 c3        1 MOL      0.050668
     88 C29         0.9050   -1.7570    4.2060 c3        1 MOL      0.109096
     89 C30         2.8360   -2.7710    3.0320 c3        1 MOL     -0.158039
     90 C31         1.6470   -1.6060    5.5410 c3        1 MOL     -0.199166
     91 H36        -0.5540   -4.6530    2.4940 hn        1 MOL      0.250529
     92 H37         0.1590   -1.9010    1.8270 h1        1 MOL     -0.142192
     93 H38         1.1380   -3.8090    3.6750 hc        1 MOL     -0.015440
     94 H39        -0.1300   -1.9800    4.4360 hc        1 MOL     -0.018711
     95 H40         0.9400   -0.8560    3.6040 hc        1 MOL     -0.018711
     96 H41         3.1960   -3.6370    2.4740 hc        1 MOL      0.017886
     97 H42         3.1120   -1.8770    2.4830 hc        1 MOL      0.017886
     98 H43         3.3930   -2.6970    3.9710 hc        1 MOL      0.017886
     99 H44         1.7210   -2.6110    5.9620 hc        1 MOL      0.044690
    100 H45         2.5710   -1.0310    5.4280 hc        1 MOL      0.044690
    101 H46         1.0560   -1.0060    6.2300 hc        1 MOL      0.044690
    102 N10         1.8710   -2.0710    0.1840 n         1 MOL     -0.316600
    103 C32         2.6330   -1.9670   -1.0220 c3        1 MOL      0.349510
    104 C33         4.0930   -1.6370   -0.7100 c         1 MOL      0.235238
    105 O16         4.4350   -1.1380    0.3650 o         1 MOL     -0.352957
    106 C34         2.0870   -0.9530   -2.0000 c3        1 MOL     -0.244661
    107 C35         0.6290   -1.3270   -2.4050 c         1 MOL      0.671318
    108 O17        -0.3640   -0.9650   -1.6740 o         1 MOL     -0.682169
    109 O18         0.5090   -2.2400   -3.2640 o         1 MOL     -0.682169
    110 H47         1.7680   -1.1800    0.6370 hn        1 MOL      0.195453
    111 H48         2.7090   -2.9310   -1.5210 h1        1 MOL     -0.000224
    112 H49         2.7940   -0.9900   -2.8170 hc        1 MOL      0.066046
    113 H50         2.0200    0.0940   -1.6850 hc        1 MOL      0.066046
    114 N11         5.0520   -1.8940   -1.6170 n         1 MOL     -0.389668
    115 C36         6.4950   -1.6480   -1.3110 c3        1 MOL      0.192963
    116 C37         6.8420   -0.1360   -1.1140 c         1 MOL      0.287218
    117 O19         7.4940    0.1750   -0.1650 o         1 MOL     -0.448603
    118 C38         7.3710   -2.2480   -2.4860 c3        1 MOL     -0.363818
    119 C39         8.8830   -2.1450   -2.1450 ca        1 MOL      0.110155
    120 C40         9.4200   -2.9910   -1.1060 ca        1 MOL     -0.092801
    121 C41         9.6960   -1.2730   -2.7970 ca        1 MOL     -0.092801
    122 C42        10.8200   -2.9610   -0.8770 ca        1 MOL     -0.213557
    123 C43        11.0500   -1.1720   -2.4950 ca        1 MOL     -0.213557
    124 C44        11.6390   -1.9970   -1.5330 ca        1 MOL     -0.012118
    125 H51         4.8910   -2.2420   -2.5510 hn        1 MOL      0.266787
    126 H52         6.7190   -2.2890   -0.4670 h1        1 MOL      0.092493
    127 H53         7.0960   -1.7120   -3.4000 hc        1 MOL      0.109996
    128 H54         7.1680   -3.3230   -2.4860 hc        1 MOL      0.109996
    129 H55         8.8620   -3.8300   -0.7000 ha        1 MOL      0.110487
    130 H56         9.2150   -0.6090   -3.4930 ha        1 MOL      0.110487
    131 H57        11.1860   -3.5870   -0.0740 ha        1 MOL      0.131845
    132 H58        11.6580   -0.3490   -2.8500 ha        1 MOL      0.131845
    133 H59        12.6830   -1.9220   -1.2500 ha        1 MOL      0.084136
    134 N12         6.2790    0.8330   -1.8750 n         1 MOL     -0.045505
    135 C45         6.3870    2.2600   -1.5460 c3        1 MOL      0.106535
    136 C46         5.8240    2.5710   -0.1520 c         1 MOL      0.252685
    137 O20         6.3650    3.4330    0.6060 o         1 MOL     -0.492807
    138 C47         5.6300    2.9750   -2.6460 c3        1 MOL     -0.039698
    139 C48         5.4130    2.0000   -3.7540 c3        1 MOL      0.093866
    140 C49         5.5090    0.6810   -3.1010 c3        1 MOL     -0.100653
    141 H60         7.4190    2.6130   -1.5570 h1        1 MOL      0.036019
    142 H61         4.6580    3.1970   -2.2330 hc        1 MOL      0.017531
    143 H62         6.1700    3.8490   -3.0010 hc        1 MOL      0.017531
    144 H63         4.5100    2.0670   -4.3610 hc        1 MOL     -0.001680
    145 H64         6.2410    2.0560   -4.4580 hc        1 MOL     -0.001680
    146 H65         4.4810    0.4080   -2.8640 h1        1 MOL      0.039779
    147 H66         6.0370    0.0320   -3.7970 h1        1 MOL      0.039779
    148 N13         4.7560    1.8870    0.2570 n         1 MOL     -0.024034
    149 C50         4.1560    2.1830    1.6280 c3        1 MOL     -0.227516
    150 C51         4.9990    1.7420    2.7800 c         1 MOL      0.461954
    151 O21         5.0800    2.3640    3.8480 o         1 MOL     -0.555672
    152 C52         2.7460    1.5330    1.7590 c3        1 MOL     -0.233894
    153 C53         1.7500    2.2220    0.8260 c3        1 MOL      0.143292
    154 C54         0.3820    1.6620    0.7150 c         1 MOL      0.427963
    155 O22        -0.2640    1.9540   -0.3160 o         1 MOL     -0.642417
    156 O23         0.0100    0.6620    1.4330 o         1 MOL     -0.642417
    157 H67         4.5300    1.0260   -0.2020 hn        1 MOL      0.114002
    158 H68         4.0540    3.2630    1.7920 h1        1 MOL      0.160153
    159 H69         2.4410    1.7010    2.7870 hc        1 MOL      0.121192
    160 H70         2.8000    0.4580    1.5530 hc        1 MOL      0.121192
    161 H71         2.1560    2.1070   -0.1730 hc        1 MOL      0.012629
    162 H72         1.6310    3.3020    0.9290 hc        1 MOL      0.012629
    163 N14         5.6410    0.6080    2.5510 n         1 MOL      0.007736
    164 C55         6.5760   -0.0460    3.4130 c3        1 MOL     -0.167459
    165 H73         7.0500   -0.8680    2.8780 h1        1 MOL      0.062411
    166 H74         7.3370    0.6660    3.7320 h1        1 MOL      0.062411
    167 H75         6.0540   -0.4360    4.2870 h1        1 MOL      0.062411
    168 H76         5.5380    0.2080    1.6270 hn        1 MOL      0.053825
    169 Ca1        -2.2100   -0.0450   -0.2000 Ca        1 MOL      1.713791
    170 O24        -2.0080   -0.1110    2.7970 oh        1 MOL     -0.685910
    171 H77        -1.9530   -0.2170    3.7470 ho        1 MOL      0.336132
    172 H78        -1.2020    0.3500    2.5700 ho        1 MOL      0.336132
    173 O25        -4.5840   -0.6670    1.4560 oh        1 MOL     -0.685910
    174 H79        -4.7180    0.2280    1.7570 ho        1 MOL      0.336132
    175 H80        -4.9410   -1.2170    2.1530 ho        1 MOL      0.336132
@<TRIPOS>BOND
     1    1    2 1   
     2    1    4 1   
     3    1    5 1   
     4    1    6 1   
     5    2    3 2   
     6    2    7 1   
     7    7    8 1   
     8    7   15 1   
     9    8    9 1   
    10    8   11 1   
    11    8   16 1   
    12    9   10 2   
    13    9   19 1   
    14   11   12 1   
    15   11   17 1   
    16   11   18 1   
    17   12   13 1   
    18   12   14 1   
    19   19   20 1   
    20   19   24 1   
    21   20   21 1   
    22   20   23 1   
    23   20   25 1   
    24   21   22 2   
    25   21   29 1   
    26   23   26 1   
    27   23   27 1   
    28   23   28 1   
    29   29   30 1   
    30   29   37 1   
    31   30   31 1   
    32   30   33 1   
    33   30   38 1   
    34   31   32 2   
    35   31   41 1   
    36   33   34 1   
    37   33   39 1   
    38   33   40 1   
    39   34   35 1   
    40   34   36 1   
    41   41   42 1   
    42   41   45 1   
    43   42   43 1   
    44   42   46 1   
    45   42   47 1   
    46   43   44 2   
    47   43   48 1   
    48   48   49 1   
    49   48   56 1   
    50   49   50 1   
    51   49   52 1   
    52   49   57 1   
    53   50   51 2   
    54   50   62 1   
    55   52   53 1   
    56   52   58 1   
    57   52   59 1   
    58   53   54 1   
    59   53   55 2   
    60   54   60 1   
    61   54   61 1   
    62   62   63 1   
    63   62   66 1   
    64   63   64 1   
    65   63   67 1   
    66   63   68 1   
    67   64   65 2   
    68   64   69 1   
    69   69   70 1   
    70   69   76 1   
    71   70   71 1   
    72   70   73 1   
    73   70   77 1   
    74   71   72 2   
    75   71   83 1   
    76   73   74 1   
    77   73   75 1   
    78   73   78 1   
    79   74   80 1   
    80   74   81 1   
    81   74   82 1   
    82   75   79 1   
    83   83   84 1   
    84   83   91 1   
    85   84   85 1   
    86   84   87 1   
    87   84   92 1   
    88   85   86 2   
    89   85  102 1   
    90   87   88 1   
    91   87   89 1   
    92   87   93 1   
    93   88   90 1   
    94   88   94 1   
    95   88   95 1   
    96   89   96 1   
    97   89   97 1   
    98   89   98 1   
    99   90   99 1   
   100   90  100 1   
   101   90  101 1   
   102  102  103 1   
   103  102  110 1   
   104  103  104 1   
   105  103  106 1   
   106  103  111 1   
   107  104  105 2   
   108  104  114 1   
   109  106  107 1   
   110  106  112 1   
   111  106  113 1   
   112  107  108 1   
   113  107  109 1   
   114  114  115 1   
   115  114  125 1   
   116  115  116 1   
   117  115  118 1   
   118  115  126 1   
   119  116  117 2   
   120  116  134 1   
   121  118  119 1   
   122  118  127 1   
   123  118  128 1   
   124  119  120 ar  
   125  119  121 ar  
   126  120  122 ar  
   127  120  129 1   
   128  121  123 ar  
   129  121  130 1   
   130  122  124 ar  
   131  122  131 1   
   132  123  124 ar  
   133  123  132 1   
   134  124  133 1   
   135  134  135 1   
   136  134  140 1   
   137  135  136 1   
   138  135  138 1   
   139  135  141 1   
   140  136  137 2   
   141  136  148 1   
   142  138  139 1   
   143  138  142 1   
   144  138  143 1   
   145  139  140 1   
   146  139  144 1   
   147  139  145 1   
   148  140  146 1   
   149  140  147 1   
   150  148  149 1   
   151  148  157 1   
   152  149  150 1   
   153  149  152 1   
   154  149  158 1   
   155  150  151 2   
   156  150  163 1   
   157  152  153 1   
   158  152  159 1   
   159  152  160 1   
   160  153  154 1   
   161  153  161 1   
   162  153  162 1   
   163  154  155 1   
   164  154  156 1   
   165  163  164 1   
   166  163  168 1   
   167  164  165 1   
   168  164  166 1   
   169  164  167 1   
   170  170  171 1   
   171  170  172 1   
   172  173  174 1   
   173  173  175 1   
@<TRIPOS>SUBSTRUCTURE
     1 MOL         1 TEMP              0 ****  ****    0 ROOT
