@<TRIPOS>MOLECULE
MOL
  189   185     1     0     0
SMALL
resp


@<TRIPOS>ATOM
      1 C1         -0.0750    3.2410   -5.4520 c3        1 MOL     -0.136995
      2 C2          0.2120    2.8860   -3.9980 c         1 MOL      0.603338
      3 O1         -0.3980    3.3580   -3.0430 o         1 MOL     -0.580456
      4 H1         -0.9460    3.8950   -5.5010 hc        1 MOL      0.036121
      5 H2          0.7870    3.7530   -5.8790 hc        1 MOL      0.036121
      6 H3         -0.2750    2.3300   -6.0160 hc        1 MOL      0.036121
      7 N1          1.1740    1.9770   -3.8020 n         1 MOL     -0.417005
      8 C3          1.8500    1.8180   -2.5590 c3        1 MOL      0.039122
      9 C4          2.3520    3.0500   -1.8640 c         1 MOL      0.540620
     10 O2          2.9810    3.8850   -2.4730 o         1 MOL     -0.611876
     11 C5          3.0060    0.7850   -2.8580 c3        1 MOL     -0.299572
     12 C6          3.7940    0.3850   -1.6130 c         1 MOL      0.852744
     13 O3          3.2150    0.3700   -0.5240 o         1 MOL     -0.722380
     14 O4          5.0310    0.1360   -1.6470 o         1 MOL     -0.722380
     15 H4          1.6870    1.7450   -4.6380 hn        1 MOL      0.295526
     16 H5          1.0710    1.3530   -1.9570 h1        1 MOL     -0.003786
     17 H6          3.6440    1.1960   -3.6470 hc        1 MOL      0.075780
     18 H7          2.5570   -0.1270   -3.2670 hc        1 MOL      0.075780
     19 N2          2.0590    3.3910   -0.5920 n         1 MOL     -0.024920
     20 C7          2.4410    4.6560    0.0520 c3        1 MOL      0.347312
     21 C8          3.3400    4.4720    1.2420 c         1 MOL      0.206130
     22 O5          3.4620    5.3510    2.1500 o         1 MOL     -0.491815
     23 C9          1.2320    5.5440    0.3510 c3        1 MOL      0.109708
     24 C10         0.4390    5.8530   -0.9100 c3        1 MOL      0.053963
     25 C11         0.9100    6.8020   -2.0170 c3        1 MOL     -0.338948
     26 C12         0.0070    6.9210   -3.2850 c3        1 MOL      0.087796
     27 N3         -1.2460    7.4610   -2.9340 n4        1 MOL     -0.404030
     28 H8          1.2890    2.8930   -0.1850 hn        1 MOL      0.076932
     29 H9          2.9740    5.2880   -0.6560 h1        1 MOL     -0.038303
     30 H10         1.5570    6.4550    0.8550 hc        1 MOL     -0.030094
     31 H11         0.5360    4.9940    0.9900 hc        1 MOL     -0.030094
     32 H12        -0.4990    6.2800   -0.5310 hc        1 MOL     -0.018073
     33 H13         0.1530    4.8770   -1.3050 hc        1 MOL     -0.018073
     34 H14         1.8730    6.3990   -2.3220 hc        1 MOL      0.111733
     35 H15         1.0850    7.8120   -1.6720 hc        1 MOL      0.111733
     36 H16        -0.1380    5.9000   -3.6440 hx        1 MOL      0.089689
     37 H17         0.4720    7.4280   -4.1410 hx        1 MOL      0.089689
     38 H18        -1.7590    6.7550   -2.4240 hn        1 MOL      0.337987
     39 H19        -1.1790    8.2720   -2.3400 hn        1 MOL      0.337987
     40 H20        -1.8020    7.7150   -3.7380 hn        1 MOL      0.337987
     41 N4          3.8690    3.2020    1.4570 n         1 MOL     -0.129424
     42 C13         4.6650    2.8770    2.6520 c3        1 MOL     -0.025054
     43 C14         6.1290    2.4090    2.1930 c         1 MOL      0.373731
     44 O6          7.0190    2.1050    2.9610 o         1 MOL     -0.463979
     45 C15         4.0640    1.7480    3.4690 c3        1 MOL     -0.061381
     46 C16         2.5300    1.9830    3.7130 c         1 MOL      0.624820
     47 O7          1.7790    1.1940    3.1640 o         1 MOL     -0.670604
     48 O8          2.0750    2.8860    4.4770 o         1 MOL     -0.670604
     49 H21         3.7710    2.5150    0.7310 hn        1 MOL      0.001021
     50 H22         4.8390    3.6840    3.3630 h1        1 MOL      0.115750
     51 H23         4.6450    1.7060    4.3860 hc        1 MOL      0.018995
     52 H24         4.1920    0.8310    2.9010 hc        1 MOL      0.018995
     53 N5          6.3600    2.3330    0.8650 n         1 MOL     -0.274059
     54 C17         7.4670    1.5410    0.2170 c3        1 MOL     -0.252993
     55 C18         7.5390    0.0580    0.6400 c         1 MOL      0.577095
     56 O9          8.6310   -0.4350    0.7850 o         1 MOL     -0.587679
     57 H25         5.7100    2.7530    0.2160 hn        1 MOL      0.222044
     58 H26         8.4490    1.8940    0.5350 h1        1 MOL      0.123643
     59 H27         7.3310    1.4230   -0.8560 h1        1 MOL      0.123643
     60 N6          6.4450   -0.6410    0.8620 n         1 MOL     -0.252143
     61 C19         6.4760   -1.9960    1.4090 c3        1 MOL     -0.072902
     62 C20         6.3300   -3.0030    0.2410 c         1 MOL      0.395405
     63 O10         6.4970   -4.2250    0.4270 o         1 MOL     -0.528832
     64 C21         5.6320   -2.2000    2.6220 c3        1 MOL     -0.249512
     65 C22         4.1830   -2.0670    2.3050 c         1 MOL      0.796928
     66 O11         3.7930   -2.2500    1.1610 o         1 MOL     -0.770897
     67 O12         3.3720   -1.7220    3.2060 o         1 MOL     -0.770897
     68 H28         5.5660   -0.2770    0.5410 hn        1 MOL      0.324456
     69 H29         7.4880   -2.2180    1.7400 h1        1 MOL      0.145174
     70 H30         5.9700   -1.5650    3.4490 hc        1 MOL      0.090572
     71 H31         5.8020   -3.2110    2.9830 hc        1 MOL      0.090572
     72 N7          6.1910   -2.5720   -1.0170 n         1 MOL     -0.266500
     73 C23         6.1280   -3.4210   -2.2180 c3        1 MOL     -0.126969
     74 C24         4.7510   -4.1860   -2.3940 c         1 MOL      0.430600
     75 O13         4.5680   -5.1450   -3.1610 o         1 MOL     -0.553504
     76 H32         5.9840   -1.5920   -1.1340 hn        1 MOL      0.231278
     77 H33         6.8140   -4.2720   -2.2240 h1        1 MOL      0.108346
     78 H34         6.3780   -2.8180   -3.0940 h1        1 MOL      0.108346
     79 N8          3.7040   -3.8360   -1.6200 n         1 MOL     -0.019719
     80 C25         2.4590   -4.5900   -1.5850 c3        1 MOL     -0.335658
     81 C26         1.2890   -3.5240   -1.5100 c         1 MOL      0.545702
     82 O14         1.4740   -2.3720   -1.0740 o         1 MOL     -0.538071
     83 C27         2.4800   -5.6270   -0.3780 c3        1 MOL      0.481983
     84 C28         3.5570   -6.6920   -0.3690 c3        1 MOL     -0.369723
     85 O15         2.3440   -4.9800    0.8200 oh        1 MOL     -0.569633
     86 H35         3.6610   -2.9390   -1.1710 hn        1 MOL      0.093054
     87 H36         2.2710   -5.1750   -2.4810 h1        1 MOL      0.136128
     88 H37         1.6380   -6.3190   -0.4800 h1        1 MOL     -0.022484
     89 H38         2.9100   -4.2120    0.6940 ho        1 MOL      0.404936
     90 H39         3.2180   -7.5250    0.2340 hc        1 MOL      0.098613
     91 H40         3.6890   -6.9680   -1.4200 hc        1 MOL      0.098613
     92 H41         4.4170   -6.1540    0.0320 hc        1 MOL      0.098613
     93 N9          0.0600   -3.8890   -1.9290 n         1 MOL     -0.507069
     94 C29        -1.1590   -3.0040   -1.9150 c3        1 MOL      0.311049
     95 C30        -2.0690   -3.4170   -0.7940 c         1 MOL      0.306063
     96 O16        -2.4030   -4.6070   -0.6490 o         1 MOL     -0.570492
     97 C31        -1.8300   -3.0090   -3.3210 c3        1 MOL      0.116941
     98 C32        -0.8690   -2.4810   -4.3520 c3        1 MOL     -0.203641
     99 C33        -3.1740   -2.2770   -3.5170 c3        1 MOL     -0.114431
    100 C34        -0.2850   -1.0730   -4.2280 c3        1 MOL     -0.042477
    101 H42        -0.0390   -4.8300   -2.2730 hn        1 MOL      0.269746
    102 H43        -0.9820   -1.9590   -1.6520 h1        1 MOL      0.094674
    103 H44        -2.1080   -4.0320   -3.5860 hc        1 MOL     -0.004675
    104 H45        -1.4270   -2.4790   -5.2860 hc        1 MOL      0.046007
    105 H46        -0.0940   -3.2300   -4.4880 hc        1 MOL      0.046007
    106 H47        -3.7050   -2.4000   -4.4610 hc        1 MOL      0.015845
    107 H48        -3.8250   -2.7760   -2.7870 hc        1 MOL      0.015845
    108 H49        -3.0830   -1.2090   -3.3970 hc        1 MOL      0.015845
    109 H50        -1.0680   -0.3190   -4.1630 hc        1 MOL      0.025909
    110 H51         0.2960   -0.9310   -3.3100 hc        1 MOL      0.025909
    111 H52         0.3960   -0.7320   -5.0080 hc        1 MOL      0.025909
    112 N10        -2.6230   -2.5180   -0.0480 n         1 MOL     -0.044883
    113 C35        -3.7100   -2.7080    0.9380 c3        1 MOL     -0.004555
    114 C36        -5.0750   -2.2870    0.3870 c         1 MOL      0.428623
    115 O17        -5.0530   -1.6010   -0.6800 o         1 MOL     -0.322464
    116 C37        -3.5280   -1.9190    2.2510 c3        1 MOL      0.129483
    117 C38        -2.6780   -2.5990    3.3170 c3        1 MOL     -0.280395
    118 O18        -2.8120   -0.7090    2.0410 oh        1 MOL     -0.613464
    119 H53        -2.2270   -1.5990   -0.1450 hn        1 MOL      0.094629
    120 H54        -3.8920   -3.7630    1.1000 h1        1 MOL      0.093549
    121 H55        -4.4690   -1.6790    2.7340 h1        1 MOL      0.028413
    122 H56        -2.0410   -0.9030    1.5080 ho        1 MOL      0.393014
    123 H57        -1.7300   -2.7570    2.8060 hc        1 MOL      0.083917
    124 H58        -2.5000   -1.9990    4.2000 hc        1 MOL      0.083917
    125 H59        -3.0360   -3.6000    3.5630 hc        1 MOL      0.083917
    126 N11        -6.1760   -2.6010    1.0850 n         1 MOL     -0.429272
    127 C39        -7.5590   -2.1560    0.7340 c3        1 MOL     -0.071788
    128 C40        -7.6210   -0.6420    0.5350 c         1 MOL      0.294056
    129 O19        -8.2800   -0.2310   -0.4210 o         1 MOL     -0.454076
    130 C41        -8.6650   -2.5910    1.7410 c3        1 MOL      0.278941
    131 C42        -9.1400   -3.9770    1.3590 c3        1 MOL     -0.344894
    132 O20        -8.1980   -2.8300    3.0470 oh        1 MOL     -0.562230
    133 H60        -6.1190   -3.1300    1.9480 hn        1 MOL      0.304046
    134 H61        -7.8300   -2.6720   -0.1870 h1        1 MOL      0.158854
    135 H62        -9.4840   -1.8690    1.7520 h1        1 MOL      0.060835
    136 H63        -8.4760   -2.0650    3.5480 ho        1 MOL      0.370521
    137 H64        -9.5820   -4.0480    0.3660 hc        1 MOL      0.105544
    138 H65        -8.2080   -4.5500    1.3500 hc        1 MOL      0.105544
    139 H66        -9.8050   -4.4210    2.1080 hc        1 MOL      0.105544
    140 N12        -6.8500    0.1620    1.3350 n         1 MOL     -0.177612
    141 C43        -6.7930    1.6450    1.2360 c3        1 MOL     -0.056549
    142 C44        -5.9490    2.1920    0.0900 c         1 MOL      0.405251
    143 O21        -5.9760    3.3210   -0.2430 o         1 MOL     -0.503577
    144 C45        -6.4050    2.3330    2.5460 c3        1 MOL     -0.220436
    145 C46        -4.8650    2.0560    2.7810 c3        1 MOL      0.043293
    146 C47        -4.4460    2.6820    4.1580 c3        1 MOL     -0.110205
    147 C48        -3.3330    1.8410    4.7910 c3        1 MOL      0.202740
    148 N13        -2.8980    2.4110    6.0990 n4        1 MOL     -0.602549
    149 H67        -6.5550   -0.1520    2.2460 hn        1 MOL      0.163360
    150 H68        -7.8040    1.9790    1.0080 h1        1 MOL      0.115368
    151 H69        -7.0330    1.9300    3.3280 hc        1 MOL      0.080676
    152 H70        -6.5090    3.4200    2.4920 hc        1 MOL      0.080676
    153 H71        -4.3420    2.5680    1.9770 hc        1 MOL      0.093001
    154 H72        -4.8500    0.9670    2.8040 hc        1 MOL      0.093001
    155 H73        -5.2450    2.7000    4.9020 hc        1 MOL      0.037863
    156 H74        -4.1090    3.6900    3.9040 hc        1 MOL      0.037863
    157 H75        -2.5000    1.7290    4.0890 hx        1 MOL      0.053323
    158 H76        -3.8140    0.8650    4.8370 hx        1 MOL      0.053323
    159 H77        -3.6990    2.5690    6.7000 hn        1 MOL      0.389148
    160 H78        -2.2620    1.7990    6.5820 hn        1 MOL      0.389148
    161 H79        -2.3160    3.2330    6.0070 hn        1 MOL      0.389148
    162 N14        -5.0410    1.3040   -0.4810 n         1 MOL     -0.002527
    163 C49        -4.2470    1.6710   -1.6380 c3        1 MOL     -0.103336
    164 C50        -4.9660    1.1400   -2.9230 c         1 MOL      0.461067
    165 O22        -4.9210    1.7850   -3.9930 o         1 MOL     -0.561045
    166 C51        -2.8260    1.0840   -1.5980 c3        1 MOL      0.088671
    167 C52        -2.0230    1.5670   -0.3710 c3        1 MOL     -0.036170
    168 C53        -0.8050    0.8430   -0.0230 c         1 MOL      0.851882
    169 O23        -0.7420   -0.3770   -0.0170 o         1 MOL     -0.798613
    170 O24         0.1790    1.4530    0.4460 o         1 MOL     -0.798613
    171 H80        -4.9370    0.3800   -0.0930 hn        1 MOL      0.005945
    172 H81        -4.1170    2.7450   -1.8070 h1        1 MOL      0.075697
    173 H82        -2.3060    1.3510   -2.5230 hc        1 MOL      0.007459
    174 H83        -2.8730   -0.0000   -1.5050 hc        1 MOL      0.007459
    175 H84        -2.6780    1.6390    0.4960 hc        1 MOL     -0.018198
    176 H85        -1.8050    2.5930   -0.6630 hc        1 MOL     -0.018198
    177 N15        -5.7000   -0.0080   -2.8570 n         1 MOL     -0.117396
    178 C54        -6.7240   -0.4540   -3.8310 c3        1 MOL     -0.328376
    179 H86        -7.6250    0.1460   -3.7110 h1        1 MOL      0.123438
    180 H87        -6.3410   -0.3340   -4.8440 h1        1 MOL      0.123438
    181 H88        -6.9610   -1.5040   -3.6550 h1        1 MOL      0.123438
    182 H89        -5.7150   -0.5130   -1.9800 hn        1 MOL      0.110473
    183 Ca1         1.6990   -0.5910    1.2550 Ca        1 MOL      1.731891
    184 O25         0.7570   -3.0400    1.7500 oh        1 MOL     -0.789014
    185 H90         0.6830   -3.2200    2.6910 ho        1 MOL      0.362035
    186 H91         1.0930   -3.8490    1.3820 ho        1 MOL      0.362035
    187 O26        -0.1250   -0.5440    3.4470 oh        1 MOL     -0.789014
    188 H92        -0.6740   -0.5380    4.2340 ho        1 MOL      0.362035
    189 H93         0.4020    0.2600    3.5220 ho        1 MOL      0.362035
@<TRIPOS>BOND
     1    1    2 1   
     2    1    4 1   
     3    1    5 1   
     4    1    6 1   
     5    2    3 2   
     6    2    7 1   
     7    7    8 1   
     8    7   15 1   
     9    8    9 1   
    10    8   11 1   
    11    8   16 1   
    12    9   10 2   
    13    9   19 1   
    14   11   12 1   
    15   11   17 1   
    16   11   18 1   
    17   12   13 1   
    18   12   14 1   
    19   19   20 1   
    20   19   28 1   
    21   20   21 1   
    22   20   23 1   
    23   20   29 1   
    24   21   22 2   
    25   21   41 1   
    26   23   24 1   
    27   23   30 1   
    28   23   31 1   
    29   24   25 1   
    30   24   32 1   
    31   24   33 1   
    32   25   26 1   
    33   25   34 1   
    34   25   35 1   
    35   26   27 1   
    36   26   36 1   
    37   26   37 1   
    38   27   38 1   
    39   27   39 1   
    40   27   40 1   
    41   41   42 1   
    42   41   49 1   
    43   42   43 1   
    44   42   45 1   
    45   42   50 1   
    46   43   44 2   
    47   43   53 1   
    48   45   46 1   
    49   45   51 1   
    50   45   52 1   
    51   46   47 1   
    52   46   48 1   
    53   53   54 1   
    54   53   57 1   
    55   54   55 1   
    56   54   58 1   
    57   54   59 1   
    58   55   56 2   
    59   55   60 1   
    60   60   61 1   
    61   60   68 1   
    62   61   62 1   
    63   61   64 1   
    64   61   69 1   
    65   62   63 2   
    66   62   72 1   
    67   64   65 1   
    68   64   70 1   
    69   64   71 1   
    70   65   66 1   
    71   65   67 1   
    72   72   73 1   
    73   72   76 1   
    74   73   74 1   
    75   73   77 1   
    76   73   78 1   
    77   74   75 2   
    78   74   79 1   
    79   79   80 1   
    80   79   86 1   
    81   80   81 1   
    82   80   83 1   
    83   80   87 1   
    84   81   82 2   
    85   81   93 1   
    86   83   84 1   
    87   83   85 1   
    88   83   88 1   
    89   84   90 1   
    90   84   91 1   
    91   84   92 1   
    92   85   89 1   
    93   93   94 1   
    94   93  101 1   
    95   94   95 1   
    96   94   97 1   
    97   94  102 1   
    98   95   96 2   
    99   95  112 1   
   100   97   98 1   
   101   97   99 1   
   102   97  103 1   
   103   98  100 1   
   104   98  104 1   
   105   98  105 1   
   106   99  106 1   
   107   99  107 1   
   108   99  108 1   
   109  100  109 1   
   110  100  110 1   
   111  100  111 1   
   112  112  113 1   
   113  112  119 1   
   114  113  114 1   
   115  113  116 1   
   116  113  120 1   
   117  114  115 2   
   118  114  126 1   
   119  116  117 1   
   120  116  118 1   
   121  116  121 1   
   122  117  123 1   
   123  117  124 1   
   124  117  125 1   
   125  118  122 1   
   126  126  127 1   
   127  126  133 1   
   128  127  128 1   
   129  127  130 1   
   130  127  134 1   
   131  128  129 2   
   132  128  140 1   
   133  130  131 1   
   134  130  132 1   
   135  130  135 1   
   136  131  137 1   
   137  131  138 1   
   138  131  139 1   
   139  132  136 1   
   140  140  141 1   
   141  140  149 1   
   142  141  142 1   
   143  141  144 1   
   144  141  150 1   
   145  142  143 2   
   146  142  162 1   
   147  144  145 1   
   148  144  151 1   
   149  144  152 1   
   150  145  146 1   
   151  145  153 1   
   152  145  154 1   
   153  146  147 1   
   154  146  155 1   
   155  146  156 1   
   156  147  148 1   
   157  147  157 1   
   158  147  158 1   
   159  148  159 1   
   160  148  160 1   
   161  148  161 1   
   162  162  163 1   
   163  162  171 1   
   164  163  164 1   
   165  163  166 1   
   166  163  172 1   
   167  164  165 2   
   168  164  177 1   
   169  166  167 1   
   170  166  173 1   
   171  166  174 1   
   172  167  168 1   
   173  167  175 1   
   174  167  176 1   
   175  168  169 1   
   176  168  170 1   
   177  177  178 1   
   178  177  182 1   
   179  178  179 1   
   180  178  180 1   
   181  178  181 1   
   182  184  185 1   
   183  184  186 1   
   184  187  188 1   
   185  187  189 1   
@<TRIPOS>SUBSTRUCTURE
     1 MOL         1 TEMP              0 ****  ****    0 ROOT
