@<TRIPOS>MOLECULE
MOL
  179   176     1     0     0
SMALL
resp


@<TRIPOS>ATOM
      1 C1         -2.2630   -3.1650    6.4000 c3        1 MOL     -0.301500
      2 C2         -2.0320   -2.3360    5.1530 c         1 MOL      0.757409
      3 O1         -2.9670   -1.7020    4.6840 o         1 MOL     -0.573515
      4 H1         -2.2260   -4.2240    6.1440 hc        1 MOL      0.071565
      5 H2         -1.4890   -2.9420    7.1330 hc        1 MOL      0.071565
      6 H3         -3.2410   -2.9270    6.8200 hc        1 MOL      0.071565
      7 N1         -0.8540   -2.4290    4.5490 n         1 MOL     -0.633236
      8 C3         -0.7100   -2.3460    3.0820 c3        1 MOL     -0.338862
      9 C4         -1.2370   -3.6190    2.4500 c         1 MOL      0.885185
     10 O2         -1.1040   -4.8000    2.8530 o         1 MOL     -0.564486
     11 C5          0.8040   -2.1660    2.9570 c3        1 MOL      0.161919
     12 C6          1.1660   -1.8010    1.5010 c         1 MOL      0.442168
     13 O3          2.3550   -1.5740    1.1900 o         1 MOL     -0.657306
     14 O4          0.2270   -1.6140    0.6700 o         1 MOL     -0.657306
     15 H4         -0.1040   -2.8090    5.1100 hn        1 MOL      0.332528
     16 H5         -1.1890   -1.4290    2.7530 h1        1 MOL      0.204818
     17 H6          1.2560   -3.1440    3.0810 hc        1 MOL      0.012894
     18 H7          1.2810   -1.4710    3.6600 hc        1 MOL      0.012894
     19 N2         -1.9010   -3.2860    1.2970 n         1 MOL     -0.641003
     20 C7         -2.3610   -4.4020    0.4600 c3        1 MOL     -0.032647
     21 C8         -1.2640   -5.2440   -0.1990 c         1 MOL      0.479936
     22 O5         -1.4650   -6.3600   -0.6630 o         1 MOL     -0.577335
     23 C9         -3.3300   -3.8010   -0.5340 c3        1 MOL      0.009537
     24 C10        -4.1030   -4.8410   -1.4000 c3        1 MOL     -0.082219
     25 C11        -5.2940   -4.1830   -2.1790 c3        1 MOL      0.046781
     26 C12        -6.0970   -5.2030   -2.9520 c3        1 MOL     -0.046345
     27 N3         -7.3750   -4.6150   -3.4650 n4        1 MOL     -0.206401
     28 H8         -1.7650   -2.3680    0.9040 hn        1 MOL      0.380121
     29 H9         -2.8910   -5.1510    1.0420 h1        1 MOL      0.104875
     30 H10        -2.8250   -3.0190   -1.1080 hc        1 MOL      0.056791
     31 H11        -4.1040   -3.3320    0.0800 hc        1 MOL      0.056791
     32 H12        -4.5320   -5.5540   -0.7010 hc        1 MOL      0.046685
     33 H13        -3.4070   -5.3920   -2.0390 hc        1 MOL      0.046685
     34 H14        -4.8040   -3.5680   -2.9300 hc        1 MOL      0.038023
     35 H15        -5.9400   -3.6200   -1.4980 hc        1 MOL      0.038023
     36 H16        -6.3140   -6.0290   -2.2760 hx        1 MOL      0.091456
     37 H17        -5.5440   -5.5260   -3.8260 hx        1 MOL      0.091456
     38 H18        -7.2030   -3.7080   -3.8840 hn        1 MOL      0.285884
     39 H19        -7.7780   -5.0540   -4.2820 hn        1 MOL      0.285884
     40 H20        -8.1140   -4.4810   -2.7890 hn        1 MOL      0.285884
     41 N4         -0.0810   -4.6840   -0.4080 n         1 MOL     -0.281791
     42 C13         1.0760   -5.4960   -0.8990 c3        1 MOL      0.222642
     43 C14         2.3480   -5.4900   -0.0520 c         1 MOL      0.360648
     44 O6          2.9840   -6.5300   -0.0030 o         1 MOL     -0.543069
     45 C15         1.4220   -5.1790   -2.3550 c3        1 MOL     -0.482609
     46 C16         1.8140   -3.7170   -2.6800 c         1 MOL      0.886201
     47 O7          2.0110   -3.4000   -3.8520 o         1 MOL     -0.722515
     48 O8          2.0930   -2.9020   -1.7740 o         1 MOL     -0.722515
     49 H21         0.0250   -3.7190   -0.0960 hn        1 MOL      0.146672
     50 H22         0.8120   -6.5440   -0.7820 h1        1 MOL      0.089616
     51 H23         0.5890   -5.4400   -3.0060 hc        1 MOL      0.125264
     52 H24         2.2280   -5.8060   -2.7280 hc        1 MOL      0.125264
     53 N5          2.6810   -4.3670    0.5930 n         1 MOL     -0.033241
     54 C17         3.8550   -4.2370    1.4700 c3        1 MOL     -0.069058
     55 C18         5.1210   -3.5740    0.7980 c         1 MOL      0.559594
     56 O9          6.1910   -3.8370    1.3090 o         1 MOL     -0.576102
     57 H25         2.0430   -3.5860    0.4780 hn        1 MOL     -0.029083
     58 H26         4.2810   -5.1620    1.8590 h1        1 MOL      0.064771
     59 H27         3.4970   -3.7080    2.3480 h1        1 MOL      0.064771
     60 N6          4.9460   -2.8150   -0.3050 n         1 MOL     -0.233869
     61 C19         6.1150   -2.2010   -1.0880 c3        1 MOL     -0.129222
     62 C20         6.5540   -0.8210   -0.5730 c         1 MOL      0.486353
     63 O10         7.0450    0.0410   -1.2900 o         1 MOL     -0.457429
     64 C21         5.7970   -2.1360   -2.6280 c3        1 MOL     -0.143343
     65 C22         4.8350   -1.0870   -3.0570 c         1 MOL      0.586083
     66 N7          4.9960   -0.6250   -4.2560 n         1 MOL     -0.693699
     67 O11         3.9040   -0.6630   -2.3840 o         1 MOL     -0.538140
     68 H28         4.0360   -2.6400   -0.6850 hn        1 MOL      0.171063
     69 H29         6.9790   -2.8580   -1.1160 h1        1 MOL      0.144795
     70 H30         5.4630   -3.1250   -2.9430 hc        1 MOL      0.073103
     71 H31         6.7120   -1.8490   -3.1460 hc        1 MOL      0.073103
     72 H32         5.7980   -0.9410   -4.7700 hn        1 MOL      0.338306
     73 H33         4.2900   -0.0570   -4.6810 hn        1 MOL      0.338306
     74 N8          6.3570   -0.6550    0.7510 n         1 MOL     -0.362057
     75 C23         6.9590    0.3620    1.5950 c3        1 MOL     -0.141096
     76 C24         6.0640    1.6180    1.6850 c         1 MOL      0.593843
     77 O12         6.4250    2.5280    2.4020 o         1 MOL     -0.554010
     78 H34         5.6590   -1.2290    1.2060 hn        1 MOL      0.294401
     79 H35         7.9720    0.6590    1.3240 h1        1 MOL      0.114206
     80 H36         7.0650    0.0600    2.6340 h1        1 MOL      0.114206
     81 N9          4.8410    1.5940    1.0920 n         1 MOL     -0.430911
     82 C25         3.8970    2.6850    1.2550 c3        1 MOL      0.400889
     83 C26         2.3930    2.2780    1.3430 c         1 MOL      0.372558
     84 O13         2.0460    1.1330    0.9470 o         1 MOL     -0.523644
     85 C27         4.1900    3.6730    0.0850 c3        1 MOL     -0.335983
     86 C28         5.5910    4.1810   -0.1850 ca        1 MOL      0.175812
     87 C29         6.3790    3.6200   -1.1860 ca        1 MOL     -0.242669
     88 C30         6.0500    5.3210    0.4470 ca        1 MOL     -0.242669
     89 C31         7.6640    4.1640   -1.4920 ca        1 MOL     -0.194812
     90 C32         7.3320    5.8710    0.1640 ca        1 MOL     -0.194812
     91 C33         8.1190    5.3270   -0.8340 ca        1 MOL      0.314100
     92 O14         9.2090    5.9350   -1.2510 oh        1 MOL     -0.497279
     93 H37         4.5750    0.8560    0.4530 hn        1 MOL      0.168341
     94 H38         4.0540    3.1350    2.2350 h1        1 MOL     -0.006302
     95 H39         3.4710    4.4910    0.1210 hc        1 MOL      0.101068
     96 H40         3.8500    3.1490   -0.8170 hc        1 MOL      0.101068
     97 H41         6.0120    2.8700   -1.8790 ha        1 MOL      0.145335
     98 H42         5.3330    5.7400    1.1490 ha        1 MOL      0.145335
     99 H43         8.3390    3.8150   -2.2640 ha        1 MOL      0.123944
    100 H44         7.6390    6.7670    0.7020 ha        1 MOL      0.123944
    101 H45         9.5020    6.6730   -0.7290 ho        1 MOL      0.380782
    102 N10         1.5430    3.2400    1.7980 n         1 MOL     -0.513329
    103 C34         0.0790    2.9940    1.7700 c3        1 MOL      0.113235
    104 C35        -0.5940    4.1740    1.0070 c         1 MOL      0.528856
    105 O15        -0.2400    5.3570    1.1210 o         1 MOL     -0.556863
    106 C36        -0.5310    2.6840    3.1090 c3        1 MOL      0.030862
    107 C37         0.1930    1.4200    3.7150 c3        1 MOL      0.269993
    108 C38        -1.9850    2.3600    2.9420 c3        1 MOL     -0.414249
    109 C39        -0.1320    1.0980    5.1760 c3        1 MOL     -0.262168
    110 H46         1.9850    4.1260    1.9490 hn        1 MOL      0.318716
    111 H47        -0.1500    2.1090    1.1720 h1        1 MOL      0.067958
    112 H48        -0.4140    3.6120    3.6650 hc        1 MOL      0.012178
    113 H49         1.2580    1.6600    3.7180 hc        1 MOL     -0.017184
    114 H50         0.0110    0.5420    3.1000 hc        1 MOL     -0.017184
    115 H51        -2.2050    1.5000    2.3120 hc        1 MOL      0.100996
    116 H52        -2.4410    2.2760    3.9390 hc        1 MOL      0.100996
    117 H53        -2.4720    3.2120    2.4630 hc        1 MOL      0.100996
    118 H54        -1.1680    0.8270    5.3670 hc        1 MOL      0.049448
    119 H55         0.5070    0.2530    5.4290 hc        1 MOL      0.049448
    120 H56         0.1060    1.9770    5.7720 hc        1 MOL      0.049448
    121 N11        -1.4140    3.7780    0.0320 n         1 MOL     -0.361625
    122 C40        -2.3300    4.6280   -0.7140 c3        1 MOL      0.356361
    123 C41        -3.7790    4.3630   -0.4070 c         1 MOL      0.116901
    124 O16        -4.1570    3.3720    0.2480 o         1 MOL     -0.213781
    125 C42        -2.1690    4.2880   -2.1850 c3        1 MOL      0.261153
    126 O17        -0.8600    4.5300   -2.5950 oh        1 MOL     -0.620328
    127 H57        -1.5760    2.7930   -0.1350 hn        1 MOL      0.145306
    128 H58        -2.0800    5.6890   -0.6380 h1        1 MOL      0.034208
    129 H59        -2.9040    4.8840   -2.7260 h1        1 MOL     -0.041128
    130 H60        -2.3760    3.2320   -2.3630 h1        1 MOL     -0.041128
    131 H61        -0.5960    3.8740   -3.2470 ho        1 MOL      0.405020
    132 N12        -4.7730    5.1800   -0.8360 n         1 MOL     -0.357105
    133 C43        -6.0430    5.2650   -0.1910 c3        1 MOL      0.028342
    134 C44        -6.8510    4.0220   -0.5240 c         1 MOL      0.487986
    135 O18        -7.5990    3.6130    0.2700 o         1 MOL     -0.478177
    136 C45        -6.8570    6.4850   -0.6340 c3        1 MOL     -0.306619
    137 H62        -4.5780    5.9100   -1.5080 hn        1 MOL      0.264771
    138 H63        -5.8860    5.4330    0.8780 h1        1 MOL      0.125517
    139 H64        -7.0520    6.4940   -1.7090 hc        1 MOL      0.103013
    140 H65        -7.8310    6.5420   -0.1450 hc        1 MOL      0.103013
    141 H66        -6.4080    7.4550   -0.3950 hc        1 MOL      0.103013
    142 N13        -6.7740    3.5160   -1.7770 n         1 MOL     -0.388064
    143 C46        -7.3870    2.2620   -2.2330 c3        1 MOL      0.159766
    144 C47        -6.9540    0.9960   -1.4060 c         1 MOL      0.282762
    145 O19        -7.7740    0.1090   -1.0470 o         1 MOL     -0.496651
    146 C48        -6.8880    2.0120   -3.6960 c3        1 MOL     -0.264554
    147 H67        -6.2700    4.0090   -2.5020 hn        1 MOL      0.242423
    148 H68        -8.4700    2.3150   -2.2570 h1        1 MOL      0.067116
    149 H69        -5.7980    1.9550   -3.6220 hc        1 MOL      0.072574
    150 H70        -7.2970    1.0540   -4.0140 hc        1 MOL      0.072574
    151 H71        -7.2250    2.8270   -4.3360 hc        1 MOL      0.072574
    152 N14        -5.6720    1.0080   -1.0290 n         1 MOL     -0.099444
    153 C49        -5.1150   -0.0380   -0.1160 c3        1 MOL     -0.042566
    154 C50        -5.5750    0.0460    1.3330 c         1 MOL      0.455591
    155 O20        -5.8900   -0.9790    2.0630 o         1 MOL     -0.530560
    156 C51        -3.5520   -0.1940   -0.2890 c3        1 MOL     -0.010013
    157 C52        -2.9720    0.1580   -1.6750 c3        1 MOL     -0.125736
    158 C53        -1.4850   -0.0060   -1.5340 c         1 MOL      0.699185
    159 O21        -0.7610    0.8340   -0.9210 o         1 MOL     -0.682186
    160 O22        -1.0080   -0.9880   -2.1490 o         1 MOL     -0.682186
    161 H72        -5.0980    1.8050   -1.2800 hn        1 MOL      0.133286
    162 H73        -5.5470   -0.9840   -0.4670 h1        1 MOL      0.006269
    163 H74        -3.1850   -1.1840   -0.0100 hc        1 MOL      0.001085
    164 H75        -3.1380    0.4260    0.5050 hc        1 MOL      0.001085
    165 H76        -3.1170    1.2390   -1.7570 hc        1 MOL      0.006297
    166 H77        -3.4770   -0.4260   -2.4410 hc        1 MOL      0.006297
    167 N15        -5.7690    1.2640    1.8230 n         1 MOL     -0.005485
    168 C54        -6.4510    1.5670    3.0840 c3        1 MOL     -0.301494
    169 H78        -6.1970    0.8090    3.8250 h1        1 MOL      0.118828
    170 H79        -6.1330    2.5460    3.4430 h1        1 MOL      0.118828
    171 H80        -7.5280    1.5710    2.9230 h1        1 MOL      0.118828
    172 H81        -5.4730    2.0920    1.3080 hn        1 MOL      0.035952
    173 Ca1         1.4520   -0.4440   -1.2200 Ca        1 MOL      1.764068
    174 O23         1.8670    2.0240   -2.3250 oh        1 MOL     -0.875984
    175 H82         1.0100    2.3090   -2.6440 ho        1 MOL      0.404258
    176 H83         2.4880    2.5290   -2.8390 ho        1 MOL      0.404258
    177 O24         1.5210   -0.7460   -3.9420 oh        1 MOL     -0.875984
    178 H84         1.9060   -1.6150   -4.0230 ho        1 MOL      0.404258
    179 H85         1.9560   -0.2250   -4.6200 ho        1 MOL      0.404258
@<TRIPOS>BOND
     1    1    2 1   
     2    1    4 1   
     3    1    5 1   
     4    1    6 1   
     5    2    3 2   
     6    2    7 1   
     7    7    8 1   
     8    7   15 1   
     9    8    9 1   
    10    8   11 1   
    11    8   16 1   
    12    9   10 2   
    13    9   19 1   
    14   11   12 1   
    15   11   17 1   
    16   11   18 1   
    17   12   13 1   
    18   12   14 1   
    19   19   20 1   
    20   19   28 1   
    21   20   21 1   
    22   20   23 1   
    23   20   29 1   
    24   21   22 2   
    25   21   41 1   
    26   23   24 1   
    27   23   30 1   
    28   23   31 1   
    29   24   25 1   
    30   24   32 1   
    31   24   33 1   
    32   25   26 1   
    33   25   34 1   
    34   25   35 1   
    35   26   27 1   
    36   26   36 1   
    37   26   37 1   
    38   27   38 1   
    39   27   39 1   
    40   27   40 1   
    41   41   42 1   
    42   41   49 1   
    43   42   43 1   
    44   42   45 1   
    45   42   50 1   
    46   43   44 2   
    47   43   53 1   
    48   45   46 1   
    49   45   51 1   
    50   45   52 1   
    51   46   47 1   
    52   46   48 1   
    53   53   54 1   
    54   53   57 1   
    55   54   55 1   
    56   54   58 1   
    57   54   59 1   
    58   55   56 2   
    59   55   60 1   
    60   60   61 1   
    61   60   68 1   
    62   61   62 1   
    63   61   64 1   
    64   61   69 1   
    65   62   63 2   
    66   62   74 1   
    67   64   65 1   
    68   64   70 1   
    69   64   71 1   
    70   65   66 1   
    71   65   67 2   
    72   66   72 1   
    73   66   73 1   
    74   74   75 1   
    75   74   78 1   
    76   75   76 1   
    77   75   79 1   
    78   75   80 1   
    79   76   77 2   
    80   76   81 1   
    81   81   82 1   
    82   81   93 1   
    83   82   83 1   
    84   82   85 1   
    85   82   94 1   
    86   83   84 2   
    87   83  102 1   
    88   85   86 1   
    89   85   95 1   
    90   85   96 1   
    91   86   87 ar  
    92   86   88 ar  
    93   87   89 ar  
    94   87   97 1   
    95   88   90 ar  
    96   88   98 1   
    97   89   91 ar  
    98   89   99 1   
    99   90   91 ar  
   100   90  100 1   
   101   91   92 1   
   102   92  101 1   
   103  102  103 1   
   104  102  110 1   
   105  103  104 1   
   106  103  106 1   
   107  103  111 1   
   108  104  105 2   
   109  104  121 1   
   110  106  107 1   
   111  106  108 1   
   112  106  112 1   
   113  107  109 1   
   114  107  113 1   
   115  107  114 1   
   116  108  115 1   
   117  108  116 1   
   118  108  117 1   
   119  109  118 1   
   120  109  119 1   
   121  109  120 1   
   122  121  122 1   
   123  121  127 1   
   124  122  123 1   
   125  122  125 1   
   126  122  128 1   
   127  123  124 2   
   128  123  132 1   
   129  125  126 1   
   130  125  129 1   
   131  125  130 1   
   132  126  131 1   
   133  132  133 1   
   134  132  137 1   
   135  133  134 1   
   136  133  136 1   
   137  133  138 1   
   138  134  135 2   
   139  134  142 1   
   140  136  139 1   
   141  136  140 1   
   142  136  141 1   
   143  142  143 1   
   144  142  147 1   
   145  143  144 1   
   146  143  146 1   
   147  143  148 1   
   148  144  145 2   
   149  144  152 1   
   150  146  149 1   
   151  146  150 1   
   152  146  151 1   
   153  152  153 1   
   154  152  161 1   
   155  153  154 1   
   156  153  156 1   
   157  153  162 1   
   158  154  155 2   
   159  154  167 1   
   160  156  157 1   
   161  156  163 1   
   162  156  164 1   
   163  157  158 1   
   164  157  165 1   
   165  157  166 1   
   166  158  159 1   
   167  158  160 1   
   168  167  168 1   
   169  167  172 1   
   170  168  169 1   
   171  168  170 1   
   172  168  171 1   
   173  174  175 1   
   174  174  176 1   
   175  177  178 1   
   176  177  179 1   
@<TRIPOS>SUBSTRUCTURE
     1 MOL         1 TEMP              0 ****  ****    0 ROOT
