@<TRIPOS>MOLECULE
MOL
  189   185     1     0     0
SMALL
resp


@<TRIPOS>ATOM
      1 C1          0.1710    3.1280    4.3070 c3        1 MOL     -0.196261
      2 C2         -0.5500    2.9720    2.9670 c         1 MOL      0.644310
      3 O1         -0.0150    3.3380    1.8950 o         1 MOL     -0.537881
      4 H1          0.2200    2.1600    4.8070 hc        1 MOL      0.051684
      5 H2          1.1810    3.5000    4.1360 hc        1 MOL      0.051684
      6 H3         -0.3750    3.8320    4.9340 hc        1 MOL      0.051684
      7 N1         -1.8500    2.6020    3.0450 n         1 MOL     -0.698510
      8 C3         -2.6470    1.9790    1.9980 c3        1 MOL      0.337561
      9 C4         -3.5410    2.9760    1.2270 c         1 MOL      0.437506
     10 O2         -4.7130    2.8830    1.2330 o         1 MOL     -0.441912
     11 C5         -3.5310    0.7920    2.4820 c3        1 MOL     -0.095129
     12 C6         -4.1890    0.0810    1.3160 c         1 MOL      0.633424
     13 O3         -3.5930   -0.1110    0.2450 o         1 MOL     -0.639503
     14 O4         -5.2730   -0.4340    1.6010 o         1 MOL     -0.639503
     15 H4         -2.2290    2.6260    3.9860 hn        1 MOL      0.328003
     16 H5         -2.0220    1.6340    1.1710 h1        1 MOL     -0.004071
     17 H6         -4.2940    1.0970    3.1820 hc        1 MOL      0.004271
     18 H7         -2.8130    0.0380    2.8390 hc        1 MOL      0.004271
     19 N2         -2.8440    3.9950    0.6610 n         1 MOL     -0.400206
     20 C7         -3.4970    5.2290    0.1750 c3        1 MOL     -0.020243
     21 C8         -4.4630    4.9750   -0.9370 c         1 MOL      0.506433
     22 O5         -5.4010    5.7690   -1.0260 o         1 MOL     -0.580652
     23 C9         -2.4560    6.3450   -0.2190 c3        1 MOL     -0.218106
     24 C10        -1.8580    6.8090    1.1800 c3        1 MOL      0.219023
     25 C11        -1.2450    8.2080    0.7830 c3        1 MOL     -0.042850
     26 C12        -0.3630    8.6460    2.0130 c3        1 MOL      0.173346
     27 N3          0.2760    9.9140    1.7220 n4        1 MOL     -0.486419
     28 H8         -1.8400    4.0320    0.7440 hn        1 MOL      0.288188
     29 H9         -4.1220    5.6130    0.9810 h1        1 MOL      0.098651
     30 H10        -3.0260    7.0640   -0.8130 hc        1 MOL      0.084913
     31 H11        -1.6630    5.8560   -0.7880 hc        1 MOL      0.084913
     32 H12        -1.0690    6.2000    1.6160 hc        1 MOL     -0.038618
     33 H13        -2.6610    6.8960    1.9180 hc        1 MOL     -0.038618
     34 H14        -2.0480    8.9430    0.6570 hc        1 MOL      0.021138
     35 H15        -0.6140    8.1040   -0.1050 hc        1 MOL      0.021138
     36 H16         0.3690    7.8820    2.2950 hx        1 MOL      0.048218
     37 H17        -1.0280    8.7920    2.8670 hx        1 MOL      0.048218
     38 H18         0.9860   10.0870    2.4150 hn        1 MOL      0.351560
     39 H19         0.8670    9.9860    0.9070 hn        1 MOL      0.351560
     40 H20        -0.4620   10.5970    1.6790 hn        1 MOL      0.351560
     41 N4         -4.3630    3.8400   -1.6240 n         1 MOL     -0.319394
     42 C13        -5.1860    3.3570   -2.7980 c3        1 MOL      0.017657
     43 C14        -6.2520    2.3390   -2.3820 c         1 MOL      0.429068
     44 O6         -7.0100    1.9320   -3.2270 o         1 MOL     -0.527119
     45 C15        -4.2530    2.7820   -3.9000 c3        1 MOL     -0.112989
     46 C16        -3.2620    1.6390   -3.5660 c         1 MOL      0.635962
     47 O7         -3.0860    1.2900   -2.3470 o         1 MOL     -0.648482
     48 O8         -2.6230    1.1090   -4.5280 o         1 MOL     -0.648482
     49 H21        -3.5660    3.2680   -1.4230 hn        1 MOL      0.209814
     50 H22        -5.7360    4.1990   -3.2130 h1        1 MOL      0.075211
     51 H23        -3.6220    3.5660   -4.3260 hc        1 MOL      0.038037
     52 H24        -4.9030    2.5380   -4.7470 hc        1 MOL      0.038037
     53 N5         -6.1150    1.8370   -1.1650 n         1 MOL     -0.028977
     54 C17        -7.1830    1.1600   -0.4920 c3        1 MOL     -0.120223
     55 C18        -7.4770   -0.2720   -1.0430 c         1 MOL      0.467601
     56 O9         -8.6250   -0.6930   -1.0720 o         1 MOL     -0.576824
     57 H25        -5.4250    2.2090   -0.5270 hn        1 MOL      0.070192
     58 H26        -8.0720    1.7310   -0.7490 h1        1 MOL      0.082518
     59 H27        -7.1530    1.2220    0.5970 h1        1 MOL      0.082518
     60 N6         -6.4780   -1.0460   -1.4100 n         1 MOL     -0.137186
     61 C19        -6.6450   -2.4590   -1.8730 c3        1 MOL      0.030696
     62 C20        -6.5830   -3.4460   -0.6220 c         1 MOL      0.370189
     63 O10        -6.8550   -4.6180   -0.7080 o         1 MOL     -0.535281
     64 C21        -5.6280   -2.9520   -2.8910 c3        1 MOL     -0.200374
     65 C22        -4.2130   -2.4760   -2.4890 c         1 MOL      0.622607
     66 O11        -3.5130   -1.7500   -3.1970 o         1 MOL     -0.618127
     67 O12        -3.7510   -2.8090   -1.3720 o         1 MOL     -0.618127
     68 H28        -5.5750   -0.6640   -1.1540 hn        1 MOL      0.042420
     69 H29        -7.6550   -2.5920   -2.2760 h1        1 MOL      0.114781
     70 H30        -5.9210   -2.5590   -3.8620 hc        1 MOL      0.062830
     71 H31        -5.6570   -4.0430   -2.9080 hc        1 MOL      0.062830
     72 N7         -6.3140   -2.9470    0.5480 n         1 MOL     -0.117867
     73 C23        -6.2760   -3.7560    1.8380 c3        1 MOL     -0.211498
     74 C24        -4.9570   -4.5100    2.1060 c         1 MOL      0.492904
     75 O13        -4.8320   -5.4150    2.9890 o         1 MOL     -0.583054
     76 H32        -6.0190   -1.9840    0.5660 hn        1 MOL      0.169781
     77 H33        -7.0400   -4.5300    1.8990 h1        1 MOL      0.120412
     78 H34        -6.4230   -3.1060    2.7020 h1        1 MOL      0.120412
     79 N8         -3.8770   -4.1050    1.4740 n         1 MOL     -0.112003
     80 C25        -2.5360   -4.6960    1.4860 c3        1 MOL     -0.344685
     81 C26        -1.4490   -3.6980    1.3900 c         1 MOL      0.693806
     82 O14        -1.5890   -2.6640    0.7210 o         1 MOL     -0.595365
     83 C27        -2.4330   -5.7350    0.3140 c3        1 MOL      0.438642
     84 C28        -3.1640   -7.0340    0.5490 c3        1 MOL     -0.450561
     85 O15        -2.6480   -5.0620   -0.8650 oh        1 MOL     -0.572218
     86 H35        -4.0230   -3.3110    0.8650 hn        1 MOL      0.209216
     87 H36        -2.3560   -5.1050    2.4790 h1        1 MOL      0.123129
     88 H37        -1.4450   -6.1540    0.1270 h1        1 MOL      0.028389
     89 H38        -3.4420   -4.5110   -0.8990 ho        1 MOL      0.368098
     90 H39        -3.2270   -7.4370    1.5680 hc        1 MOL      0.112387
     91 H40        -4.1930   -6.9410    0.2170 hc        1 MOL      0.112387
     92 H41        -2.7220   -7.8160   -0.0750 hc        1 MOL      0.112387
     93 N9         -0.2360   -3.9530    1.9570 n         1 MOL     -0.653027
     94 C29         0.8640   -3.0010    2.0960 c3        1 MOL      0.032964
     95 C30         2.1320   -3.4870    1.4000 c         1 MOL      0.744033
     96 O16         2.5370   -4.5500    1.7160 o         1 MOL     -0.583203
     97 C31         1.1200   -2.6890    3.5890 c3        1 MOL      0.064267
     98 C32        -0.1040   -1.8440    4.1500 c3        1 MOL      0.150561
     99 C33         2.3780   -1.8910    3.9870 c3        1 MOL     -0.198654
    100 C34        -0.0090   -1.5160    5.6850 c3        1 MOL     -0.130543
    101 H42        -0.1160   -4.8610    2.3900 hn        1 MOL      0.318868
    102 H43         0.5950   -2.0780    1.5810 h1        1 MOL      0.018739
    103 H44         1.1830   -3.6440    4.1250 hc        1 MOL      0.018076
    104 H45        -1.0570   -2.3400    3.9950 hc        1 MOL     -0.000568
    105 H46        -0.0600   -0.8500    3.7120 hc        1 MOL     -0.000568
    106 H47         2.3830   -0.8960    3.5600 hc        1 MOL      0.033782
    107 H48         2.6040   -1.7580    5.0420 hc        1 MOL      0.033782
    108 H49         3.2480   -2.4340    3.6170 hc        1 MOL      0.033782
    109 H50        -0.8480   -0.8550    5.8760 hc        1 MOL      0.018280
    110 H51        -0.2500   -2.4260    6.2270 hc        1 MOL      0.018280
    111 H52         0.9450   -1.0530    5.9670 hc        1 MOL      0.018280
    112 N10         2.6610   -2.7040    0.4530 n         1 MOL     -0.534923
    113 C35         3.9510   -2.9890   -0.2500 c3        1 MOL     -0.096163
    114 C36         5.2150   -2.4450    0.3750 c         1 MOL      0.552381
    115 O17         4.9840   -1.5320    1.2010 o         1 MOL     -0.443069
    116 C37         3.8620   -2.3460   -1.6300 c3        1 MOL      0.102204
    117 C38         2.6410   -2.9060   -2.4370 c3        1 MOL     -0.306465
    118 O18         3.7730   -0.9040   -1.5990 oh        1 MOL     -0.540878
    119 H53         2.1920   -1.8560    0.1520 hn        1 MOL      0.479263
    120 H54         4.0120   -4.0810   -0.2700 h1        1 MOL      0.087110
    121 H55         4.7630   -2.5320   -2.2150 h1        1 MOL      0.057292
    122 H56         2.8980   -0.6240   -1.3320 ho        1 MOL      0.376985
    123 H57         2.8430   -3.9020   -2.8220 hc        1 MOL      0.103647
    124 H58         1.6860   -2.9410   -1.8940 hc        1 MOL      0.103647
    125 H59         2.3910   -2.2560   -3.2810 hc        1 MOL      0.103647
    126 N11         6.4010   -2.8580   -0.0330 n         1 MOL     -0.432283
    127 C39         7.7250   -2.2160    0.3940 c3        1 MOL     -0.114861
    128 C40         7.7320   -0.6440    0.3440 c         1 MOL      0.246361
    129 O19         8.1790    0.0260    1.3360 o         1 MOL     -0.494060
    130 C41         8.9430   -2.7080   -0.4170 c3        1 MOL      0.274263
    131 C42         9.2450   -4.2220   -0.2470 c3        1 MOL     -0.542956
    132 O20         8.7580   -2.5110   -1.7950 oh        1 MOL     -0.608932
    133 H60         6.4760   -3.5370   -0.7700 hn        1 MOL      0.311293
    134 H61         7.8580   -2.5030    1.4350 h1        1 MOL      0.164868
    135 H62         9.8130   -2.1470   -0.0820 h1        1 MOL      0.049560
    136 H63         9.6410   -2.3200   -2.1390 ho        1 MOL      0.397668
    137 H64         9.1990   -4.4570    0.8190 hc        1 MOL      0.161005
    138 H65         8.5170   -4.8210   -0.7970 hc        1 MOL      0.161005
    139 H66        10.2770   -4.3520   -0.5780 hc        1 MOL      0.161005
    140 N12         7.1100   -0.0190   -0.6330 n         1 MOL      0.013543
    141 C43         7.1180    1.4180   -0.8790 c3        1 MOL     -0.137024
    142 C44         6.1550    2.1500   -0.0040 c         1 MOL      0.345635
    143 O21         6.5050    3.2240    0.4290 o         1 MOL     -0.502426
    144 C45         6.6760    1.6370   -2.3510 c3        1 MOL     -0.308429
    145 C46         7.5460    1.0260   -3.4420 c3        1 MOL      0.179913
    146 C47         9.0460    1.3070   -3.3420 c3        1 MOL     -0.314453
    147 C48         9.7950    0.8930   -4.6790 c3        1 MOL      0.046889
    148 N13        11.1330    1.4020   -4.6690 n4        1 MOL     -0.245932
    149 H67         6.6570   -0.5840   -1.3440 hn        1 MOL      0.254644
    150 H68         8.1210    1.8240   -0.7140 h1        1 MOL      0.112400
    151 H69         6.7100    2.6920   -2.6360 hc        1 MOL      0.114502
    152 H70         5.6200    1.3710   -2.4540 hc        1 MOL      0.114502
    153 H71         7.1930    1.3600   -4.4100 hc        1 MOL     -0.008315
    154 H72         7.3390   -0.0420   -3.4030 hc        1 MOL     -0.008315
    155 H73         9.4660    0.8910   -2.4340 hc        1 MOL      0.115491
    156 H74         9.1060    2.3890   -3.2760 hc        1 MOL      0.115491
    157 H75         9.2360    1.3860   -5.4770 hx        1 MOL      0.092474
    158 H76         9.6850   -0.1750   -4.8400 hx        1 MOL      0.092474
    159 H77        11.1800    2.4050   -4.7670 hn        1 MOL      0.269351
    160 H78        11.5850    1.2450   -3.7800 hn        1 MOL      0.269351
    161 H79        11.7680    0.8900   -5.2580 hn        1 MOL      0.269351
    162 N14         5.0080    1.5400    0.3230 n         1 MOL      0.111483
    163 C49         3.9090    2.1950    1.1510 c3        1 MOL     -0.462175
    164 C50         4.3650    2.2510    2.5980 c         1 MOL      0.524517
    165 O22         4.1080    3.2140    3.3000 o         1 MOL     -0.531469
    166 C51         2.5650    1.4080    1.1270 c3        1 MOL      0.272932
    167 C52         1.8930    1.6050   -0.2390 c3        1 MOL     -0.098117
    168 C53         0.6580    0.6670   -0.4270 c         1 MOL      0.762103
    169 O23         0.7820   -0.5840   -0.5380 o         1 MOL     -0.792377
    170 O24        -0.4550    1.2130   -0.6790 o         1 MOL     -0.792377
    171 H80         4.8210    0.6160   -0.0400 hn        1 MOL      0.035380
    172 H81         3.7340    3.2160    0.8270 h1        1 MOL      0.184647
    173 H82         1.9080    1.7920    1.9040 hc        1 MOL     -0.051366
    174 H83         2.6700    0.3300    1.2250 hc        1 MOL     -0.051366
    175 H84         2.5950    1.3840   -1.0460 hc        1 MOL      0.001618
    176 H85         1.6550    2.6630   -0.3720 hc        1 MOL      0.001618
    177 N15         5.2000    1.2350    2.9080 n         1 MOL     -0.132300
    178 C54         5.9440    1.3220    4.1960 c3        1 MOL     -0.274828
    179 H86         5.9580    0.3430    4.6740 h1        1 MOL      0.107858
    180 H87         6.9670    1.6460    4.0040 h1        1 MOL      0.107858
    181 H88         5.4520    2.0390    4.8530 h1        1 MOL      0.107858
    182 H89         5.3280    0.4680    2.2710 hn        1 MOL      0.184676
    183 Ca1        -1.9180   -0.7960   -1.3710 Ca        1 MOL      1.748951
    184 O25        -0.8410   -3.2780   -1.9920 oh        1 MOL     -0.828748
    185 H90        -1.6140   -3.8170   -1.8610 ho        1 MOL      0.376164
    186 H91        -0.3390   -3.7420   -2.6670 ho        1 MOL      0.376164
    187 O26        -0.7550   -0.5060   -3.8350 oh        1 MOL     -0.828748
    188 H92        -1.4190    0.1060   -4.1550 ho        1 MOL      0.376164
    189 H93         0.0720   -0.0660   -4.0180 ho        1 MOL      0.376164
@<TRIPOS>BOND
     1    1    2 1   
     2    1    4 1   
     3    1    5 1   
     4    1    6 1   
     5    2    3 2   
     6    2    7 1   
     7    7    8 1   
     8    7   15 1   
     9    8    9 1   
    10    8   11 1   
    11    8   16 1   
    12    9   10 2   
    13    9   19 1   
    14   11   12 1   
    15   11   17 1   
    16   11   18 1   
    17   12   13 1   
    18   12   14 1   
    19   19   20 1   
    20   19   28 1   
    21   20   21 1   
    22   20   23 1   
    23   20   29 1   
    24   21   22 2   
    25   21   41 1   
    26   23   24 1   
    27   23   30 1   
    28   23   31 1   
    29   24   25 1   
    30   24   32 1   
    31   24   33 1   
    32   25   26 1   
    33   25   34 1   
    34   25   35 1   
    35   26   27 1   
    36   26   36 1   
    37   26   37 1   
    38   27   38 1   
    39   27   39 1   
    40   27   40 1   
    41   41   42 1   
    42   41   49 1   
    43   42   43 1   
    44   42   45 1   
    45   42   50 1   
    46   43   44 2   
    47   43   53 1   
    48   45   46 1   
    49   45   51 1   
    50   45   52 1   
    51   46   47 1   
    52   46   48 1   
    53   53   54 1   
    54   53   57 1   
    55   54   55 1   
    56   54   58 1   
    57   54   59 1   
    58   55   56 2   
    59   55   60 1   
    60   60   61 1   
    61   60   68 1   
    62   61   62 1   
    63   61   64 1   
    64   61   69 1   
    65   62   63 2   
    66   62   72 1   
    67   64   65 1   
    68   64   70 1   
    69   64   71 1   
    70   65   66 1   
    71   65   67 1   
    72   72   73 1   
    73   72   76 1   
    74   73   74 1   
    75   73   77 1   
    76   73   78 1   
    77   74   75 2   
    78   74   79 1   
    79   79   80 1   
    80   79   86 1   
    81   80   81 1   
    82   80   83 1   
    83   80   87 1   
    84   81   82 2   
    85   81   93 1   
    86   83   84 1   
    87   83   85 1   
    88   83   88 1   
    89   84   90 1   
    90   84   91 1   
    91   84   92 1   
    92   85   89 1   
    93   93   94 1   
    94   93  101 1   
    95   94   95 1   
    96   94   97 1   
    97   94  102 1   
    98   95   96 2   
    99   95  112 1   
   100   97   98 1   
   101   97   99 1   
   102   97  103 1   
   103   98  100 1   
   104   98  104 1   
   105   98  105 1   
   106   99  106 1   
   107   99  107 1   
   108   99  108 1   
   109  100  109 1   
   110  100  110 1   
   111  100  111 1   
   112  112  113 1   
   113  112  119 1   
   114  113  114 1   
   115  113  116 1   
   116  113  120 1   
   117  114  115 2   
   118  114  126 1   
   119  116  117 1   
   120  116  118 1   
   121  116  121 1   
   122  117  123 1   
   123  117  124 1   
   124  117  125 1   
   125  118  122 1   
   126  126  127 1   
   127  126  133 1   
   128  127  128 1   
   129  127  130 1   
   130  127  134 1   
   131  128  129 2   
   132  128  140 1   
   133  130  131 1   
   134  130  132 1   
   135  130  135 1   
   136  131  137 1   
   137  131  138 1   
   138  131  139 1   
   139  132  136 1   
   140  140  141 1   
   141  140  149 1   
   142  141  142 1   
   143  141  144 1   
   144  141  150 1   
   145  142  143 2   
   146  142  162 1   
   147  144  145 1   
   148  144  151 1   
   149  144  152 1   
   150  145  146 1   
   151  145  153 1   
   152  145  154 1   
   153  146  147 1   
   154  146  155 1   
   155  146  156 1   
   156  147  148 1   
   157  147  157 1   
   158  147  158 1   
   159  148  159 1   
   160  148  160 1   
   161  148  161 1   
   162  162  163 1   
   163  162  171 1   
   164  163  164 1   
   165  163  166 1   
   166  163  172 1   
   167  164  165 2   
   168  164  177 1   
   169  166  167 1   
   170  166  173 1   
   171  166  174 1   
   172  167  168 1   
   173  167  175 1   
   174  167  176 1   
   175  168  169 1   
   176  168  170 1   
   177  177  178 1   
   178  177  182 1   
   179  178  179 1   
   180  178  180 1   
   181  178  181 1   
   182  184  185 1   
   183  184  186 1   
   184  187  188 1   
   185  187  189 1   
@<TRIPOS>SUBSTRUCTURE
     1 MOL         1 TEMP              0 ****  ****    0 ROOT
