@<TRIPOS>MOLECULE
MOL
  172   171     1     0     0
SMALL
resp


@<TRIPOS>ATOM
      1 C1         -0.2740   -3.1210    5.7630 c3        1 MOL     -0.381147
      2 C2          0.3920   -3.1020    4.2970 c         1 MOL      0.733940
      3 O1         -0.3080   -3.4830    3.3600 o         1 MOL     -0.584288
      4 H1         -1.3590   -3.0680    5.6700 hc        1 MOL      0.089673
      5 H2          0.0010   -4.0430    6.2760 hc        1 MOL      0.089673
      6 H3          0.0830   -2.2650    6.3360 hc        1 MOL      0.089673
      7 N1          1.6900   -2.8260    4.1870 n         1 MOL     -0.699705
      8 C3          2.2720   -2.5690    2.8760 c3        1 MOL      0.423088
      9 C4          2.7200   -3.8110    2.1110 c         1 MOL      0.429008
     10 O2          3.7350   -4.4270    2.4050 o         1 MOL     -0.568333
     11 C5          3.5010   -1.6770    3.1510 c3        1 MOL     -0.254859
     12 C6          4.0060   -0.9920    1.8390 c         1 MOL      0.773435
     13 O3          3.3950   -1.1180    0.7440 o         1 MOL     -0.735766
     14 O4          4.8950   -0.1350    1.9680 o         1 MOL     -0.735766
     15 H4          2.1960   -2.5380    5.0150 hn        1 MOL      0.318610
     16 H5          1.5840   -2.0090    2.2440 h1        1 MOL     -0.099978
     17 H6          4.3190   -2.3170    3.4780 hc        1 MOL      0.052003
     18 H7          3.2910   -0.9060    3.8770 hc        1 MOL      0.052003
     19 N2          1.9040   -4.0240    1.1030 n         1 MOL     -0.257050
     20 C7          1.8810   -5.2340    0.3170 c3        1 MOL     -0.031498
     21 C8          2.7570   -5.2130   -0.9500 c         1 MOL      0.534785
     22 O5          2.8300   -6.2180   -1.6560 o         1 MOL     -0.571209
     23 C9          0.4350   -5.6160    0.0480 c3        1 MOL     -0.045759
     24 H8          1.1480   -3.3750    0.9530 hn        1 MOL      0.299363
     25 H9          2.3610   -5.9410    0.9980 h1        1 MOL      0.062048
     26 H10         0.4740   -6.4320   -0.6700 hc        1 MOL      0.015127
     27 H11        -0.0820   -6.0380    0.9110 hc        1 MOL      0.015127
     28 H12        -0.1630   -4.8340   -0.4190 hc        1 MOL      0.015127
     29 N3          3.4960   -4.1170   -1.2090 n         1 MOL     -0.282710
     30 C10         4.5320   -3.8890   -2.2830 c3        1 MOL     -0.072857
     31 C11         5.8750   -3.3280   -1.7130 c         1 MOL      0.510427
     32 O6          6.8910   -3.1540   -2.3260 o         1 MOL     -0.546178
     33 C12         4.0140   -3.0450   -3.4230 c3        1 MOL     -0.009678
     34 C13         3.3020   -1.8400   -2.8870 c         1 MOL      0.607808
     35 O7          3.8990   -1.0660   -2.0570 o         1 MOL     -0.661696
     36 O8          2.1240   -1.6240   -3.0800 o         1 MOL     -0.661696
     37 H13         3.1760   -3.3300   -0.6610 hn        1 MOL      0.237655
     38 H14         4.7020   -4.9000   -2.6570 h1        1 MOL      0.086140
     39 H15         3.2550   -3.5880   -3.9850 hc        1 MOL      0.014303
     40 H16         4.7520   -2.7260   -4.1670 hc        1 MOL      0.014303
     41 N4          5.8090   -2.9440   -0.4270 n         1 MOL     -0.341417
     42 C14         6.8760   -2.2590    0.3040 c3        1 MOL      0.045885
     43 C15         7.3880   -0.8770   -0.1090 c         1 MOL      0.420906
     44 O9          8.5120   -0.5280    0.2910 o         1 MOL     -0.595810
     45 H17         4.8980   -2.8300   -0.0160 hn        1 MOL      0.106673
     46 H18         7.7400   -2.9110    0.4650 h1        1 MOL      0.061210
     47 H19         6.4700   -2.0850    1.3010 h1        1 MOL      0.061210
     48 N5          6.6820   -0.1800   -1.0370 n         1 MOL     -0.121752
     49 C16         7.0720    1.0800   -1.7190 c3        1 MOL     -0.079398
     50 C17         6.9670    2.3150   -0.7580 c         1 MOL      0.480837
     51 O10         7.6420    3.2790   -1.1330 o         1 MOL     -0.590592
     52 C18         6.0900    1.2470   -2.9270 c3        1 MOL     -0.207622
     53 C19         4.6980    1.7240   -2.6020 c         1 MOL      0.731255
     54 N6          3.9010    1.9070   -3.6490 n         1 MOL     -0.825436
     55 O11         4.2390    1.6910   -1.5050 o         1 MOL     -0.659065
     56 H20         5.8090   -0.6170   -1.2870 hn        1 MOL      0.145839
     57 H21         8.0680    0.9300   -2.1290 h1        1 MOL      0.116307
     58 H22         6.0310    0.2690   -3.4180 hc        1 MOL      0.064537
     59 H23         6.4620    1.9580   -3.6580 hc        1 MOL      0.064537
     60 H24         4.2700    1.8650   -4.5920 hn        1 MOL      0.350612
     61 H25         2.9630    2.1820   -3.4190 hn        1 MOL      0.350612
     62 N7          6.4230    2.2770    0.4280 n         1 MOL     -0.128958
     63 C20         6.4210    3.3780    1.4160 c3        1 MOL     -0.223971
     64 C21         5.1360    4.1630    1.6670 c         1 MOL      0.606807
     65 O12         5.2170    5.1540    2.3960 o         1 MOL     -0.584208
     66 H26         5.9250    1.4400    0.7000 hn        1 MOL      0.239329
     67 H27         7.1910    4.0610    1.0630 h1        1 MOL      0.101911
     68 H28         6.6270    2.8480    2.3470 h1        1 MOL      0.101911
     69 N8          4.0050    3.7880    1.0210 n         1 MOL     -0.251112
     70 C22         2.7410    4.5760    0.9950 c3        1 MOL     -0.302810
     71 C23         1.5740    3.5920    0.9070 c         1 MOL      0.873381
     72 O13         1.7640    2.4360    0.4830 o         1 MOL     -0.690559
     73 C24         2.6830    5.4320   -0.3000 c3        1 MOL      0.307003
     74 C25         3.8080    6.4900   -0.2700 c3        1 MOL     -0.493230
     75 O14         2.7840    4.7970   -1.5480 oh        1 MOL     -0.530621
     76 H29         3.9480    2.9210    0.4890 hn        1 MOL      0.270919
     77 H30         2.5740    5.1960    1.8760 h1        1 MOL      0.138085
     78 H31         1.6940    5.8990   -0.3280 h1        1 MOL      0.000391
     79 H32         2.4080    5.4880   -2.1060 ho        1 MOL      0.382358
     80 H33         3.8720    7.0570    0.6640 hc        1 MOL      0.131068
     81 H34         4.8110    6.0630   -0.4010 hc        1 MOL      0.131068
     82 H35         3.8040    7.2690   -1.0320 hc        1 MOL      0.131068
     83 N9          0.4670    4.0020    1.6030 n         1 MOL     -0.755237
     84 C26        -0.7460    3.1740    1.6110 c3        1 MOL      0.035765
     85 C27        -1.5620    3.2860    0.3420 c         1 MOL      0.543351
     86 O15        -1.9800    4.3310   -0.1090 o         1 MOL     -0.591428
     87 C28        -1.6140    3.4170    2.8760 c3        1 MOL      0.326945
     88 C29        -0.8080    3.5480    4.0930 c3        1 MOL      0.053030
     89 C30        -2.5840    2.2340    3.0050 c3        1 MOL     -0.272501
     90 C31        -1.5820    3.6000    5.3970 c3        1 MOL     -0.400944
     91 H36         0.4900    4.9540    1.9240 hn        1 MOL      0.348663
     92 H37        -0.2980    2.1830    1.7200 h1        1 MOL      0.150323
     93 H38        -2.1720    4.3420    2.7380 hc        1 MOL     -0.066868
     94 H39        -0.2180    4.4610    4.0230 hc        1 MOL      0.009726
     95 H40        -0.1250    2.7020    4.0870 hc        1 MOL      0.009726
     96 H41        -3.2270    2.3700    3.8860 hc        1 MOL      0.040523
     97 H42        -3.2350    2.2490    2.1320 hc        1 MOL      0.040523
     98 H43        -2.0970    1.2670    3.0650 hc        1 MOL      0.040523
     99 H44        -1.8740    2.6020    5.7360 hc        1 MOL      0.097751
    100 H45        -0.9310    3.9970    6.1750 hc        1 MOL      0.097751
    101 H46        -2.5290    4.1040    5.2080 hc        1 MOL      0.097751
    102 N10        -1.8540    2.1220   -0.2360 n         1 MOL     -0.133439
    103 C32        -2.8710    1.9360   -1.2800 c3        1 MOL      0.056429
    104 C33        -4.2820    1.5190   -0.7040 c         1 MOL      0.485170
    105 O16        -4.4560    0.8790    0.3240 o         1 MOL     -0.276689
    106 C34        -2.3500    0.8910   -2.2450 c3        1 MOL     -0.472847
    107 C35        -0.9690    1.0220   -2.8590 c         1 MOL      0.892088
    108 O17        -0.7200    1.8820   -3.7480 o         1 MOL     -0.727563
    109 O18        -0.0920    0.2520   -2.5060 o         1 MOL     -0.727563
    110 H47        -1.4350    1.3030    0.1740 hn        1 MOL     -0.137754
    111 H48        -3.0150    2.8820   -1.7960 h1        1 MOL      0.075073
    112 H49        -3.0720    1.0390   -3.0530 hc        1 MOL      0.130572
    113 H50        -2.4180   -0.1250   -1.8420 hc        1 MOL      0.130572
    114 N11        -5.3640    1.7170   -1.3940 n         1 MOL     -0.701366
    115 C36        -6.7550    1.3650   -1.0150 c3        1 MOL      0.480550
    116 C37        -6.8960   -0.1620   -0.8190 c         1 MOL      0.322864
    117 O19        -7.3330   -0.5540    0.2700 o         1 MOL     -0.534514
    118 C38        -7.8180    1.8570   -2.0160 c3        1 MOL     -0.412880
    119 C39        -9.2920    1.5420   -1.6470 ca        1 MOL      0.338614
    120 C40       -10.0460    0.7810   -2.5960 ca        1 MOL     -0.346387
    121 C41        -9.8340    1.9040   -0.4620 ca        1 MOL     -0.346387
    122 C42       -11.3200    0.3750   -2.2600 ca        1 MOL      0.041308
    123 C43       -11.1330    1.5120   -0.1640 ca        1 MOL      0.041308
    124 C44       -11.9120    0.7760   -1.0660 ca        1 MOL     -0.260645
    125 H51        -5.2130    2.0140   -2.3470 hn        1 MOL      0.336466
    126 H52        -6.9520    1.8200   -0.0430 h1        1 MOL      0.032779
    127 H53        -7.5710    1.4650   -3.0080 hc        1 MOL      0.098619
    128 H54        -7.7760    2.9430   -2.0430 hc        1 MOL      0.098619
    129 H55        -9.6140    0.4540   -3.5370 ha        1 MOL      0.155006
    130 H56        -9.2670    2.4710    0.2650 ha        1 MOL      0.155006
    131 H57       -11.9480   -0.2410   -2.8960 ha        1 MOL      0.077288
    132 H58       -11.6610    1.6700    0.7630 ha        1 MOL      0.077288
    133 H59       -12.8890    0.4370   -0.7610 ha        1 MOL      0.137613
    134 N12        -6.2860   -1.0580   -1.5960 n         1 MOL     -0.071762
    135 C45        -6.1620   -2.5270   -1.2950 c3        1 MOL     -0.057629
    136 C46        -5.3610   -2.8710   -0.0430 c         1 MOL      0.385937
    137 O20        -5.3800   -4.0660    0.2740 o         1 MOL     -0.545923
    138 C47        -5.4570   -3.1530   -2.5310 c3        1 MOL     -0.187062
    139 C48        -5.6810   -2.1580   -3.6310 c3        1 MOL      0.167704
    140 C49        -5.7700   -0.7830   -2.9560 c3        1 MOL      0.087887
    141 H60        -7.1840   -2.8240   -1.0730 h1        1 MOL      0.093200
    142 H61        -4.3820   -3.2360   -2.3660 hc        1 MOL      0.088780
    143 H62        -5.8250   -4.1420   -2.8000 hc        1 MOL      0.088780
    144 H63        -4.9330   -2.2360   -4.4120 hc        1 MOL     -0.032689
    145 H64        -6.6540   -2.2950   -4.1120 hc        1 MOL     -0.032689
    146 H65        -4.8070   -0.2720   -2.9650 h1        1 MOL     -0.031427
    147 H66        -6.4860   -0.1990   -3.5310 h1        1 MOL     -0.031427
    148 N13        -4.6100   -1.9440    0.5440 n         1 MOL     -0.020864
    149 C50        -3.9160   -2.0750    1.8170 c3        1 MOL     -0.098907
    150 C51        -4.6060   -1.4050    2.9150 c         1 MOL      0.413867
    151 O21        -4.6730   -2.0030    3.9990 o         1 MOL     -0.555108
    152 C52        -2.4390   -1.5250    1.6300 c3        1 MOL     -0.099703
    153 C53        -1.6920   -2.2180    0.5050 c3        1 MOL      0.159542
    154 C54        -0.3830   -1.5520    0.1740 c         1 MOL      0.664173
    155 O22         0.5610   -2.1570   -0.3380 o         1 MOL     -0.691643
    156 O23        -0.3020   -0.2960    0.3120 o         1 MOL     -0.691643
    157 H67        -4.5540   -1.0320    0.1160 hn        1 MOL      0.073794
    158 H68        -3.9120   -3.1290    2.0810 h1        1 MOL      0.119373
    159 H69        -1.8490   -1.5320    2.5380 hc        1 MOL      0.072617
    160 H70        -2.5090   -0.4690    1.3880 hc        1 MOL      0.072617
    161 H71        -2.3390   -2.1890   -0.3760 hc        1 MOL     -0.033250
    162 H72        -1.5660   -3.2630    0.7850 hc        1 MOL     -0.033250
    163 N14        -5.2980   -0.2670    2.7580 n         1 MOL     -0.109277
    164 C55        -6.0810    0.4380    3.8100 c3        1 MOL     -0.080877
    165 H73        -7.0440    0.7450    3.4010 h1        1 MOL      0.048750
    166 H74        -6.2430   -0.2320    4.6540 h1        1 MOL      0.048750
    167 H75        -5.5320    1.3180    4.1450 h1        1 MOL      0.048750
    168 H76        -5.3270    0.1480    1.8370 hn        1 MOL      0.074753
    169 Ca1         1.9140    0.1640   -0.9650 Ca        1 MOL      1.775570
    170 O24         1.4830    2.5390   -2.5250 oh        1 MOL     -0.676121
    171 H77         0.6450    2.5390   -2.9840 ho        1 MOL      0.326764
    172 H78         1.6780    3.4630   -2.3760 ho        1 MOL      0.326764
@<TRIPOS>BOND
     1    1    2 1   
     2    1    4 1   
     3    1    5 1   
     4    1    6 1   
     5    2    3 2   
     6    2    7 1   
     7    7    8 1   
     8    7   15 1   
     9    8    9 1   
    10    8   11 1   
    11    8   16 1   
    12    9   10 2   
    13    9   19 1   
    14   11   12 1   
    15   11   17 1   
    16   11   18 1   
    17   12   13 1   
    18   12   14 1   
    19   19   20 1   
    20   19   24 1   
    21   20   21 1   
    22   20   23 1   
    23   20   25 1   
    24   21   22 2   
    25   21   29 1   
    26   23   26 1   
    27   23   27 1   
    28   23   28 1   
    29   29   30 1   
    30   29   37 1   
    31   30   31 1   
    32   30   33 1   
    33   30   38 1   
    34   31   32 2   
    35   31   41 1   
    36   33   34 1   
    37   33   39 1   
    38   33   40 1   
    39   34   35 1   
    40   34   36 1   
    41   41   42 1   
    42   41   45 1   
    43   42   43 1   
    44   42   46 1   
    45   42   47 1   
    46   43   44 2   
    47   43   48 1   
    48   48   49 1   
    49   48   56 1   
    50   49   50 1   
    51   49   52 1   
    52   49   57 1   
    53   50   51 2   
    54   50   62 1   
    55   52   53 1   
    56   52   58 1   
    57   52   59 1   
    58   53   54 1   
    59   53   55 2   
    60   54   60 1   
    61   54   61 1   
    62   62   63 1   
    63   62   66 1   
    64   63   64 1   
    65   63   67 1   
    66   63   68 1   
    67   64   65 2   
    68   64   69 1   
    69   69   70 1   
    70   69   76 1   
    71   70   71 1   
    72   70   73 1   
    73   70   77 1   
    74   71   72 2   
    75   71   83 1   
    76   73   74 1   
    77   73   75 1   
    78   73   78 1   
    79   74   80 1   
    80   74   81 1   
    81   74   82 1   
    82   75   79 1   
    83   83   84 1   
    84   83   91 1   
    85   84   85 1   
    86   84   87 1   
    87   84   92 1   
    88   85   86 2   
    89   85  102 1   
    90   87   88 1   
    91   87   89 1   
    92   87   93 1   
    93   88   90 1   
    94   88   94 1   
    95   88   95 1   
    96   89   96 1   
    97   89   97 1   
    98   89   98 1   
    99   90   99 1   
   100   90  100 1   
   101   90  101 1   
   102  102  103 1   
   103  102  110 1   
   104  103  104 1   
   105  103  106 1   
   106  103  111 1   
   107  104  105 2   
   108  104  114 1   
   109  106  107 1   
   110  106  112 1   
   111  106  113 1   
   112  107  108 1   
   113  107  109 1   
   114  114  115 1   
   115  114  125 1   
   116  115  116 1   
   117  115  118 1   
   118  115  126 1   
   119  116  117 2   
   120  116  134 1   
   121  118  119 1   
   122  118  127 1   
   123  118  128 1   
   124  119  120 ar  
   125  119  121 ar  
   126  120  122 ar  
   127  120  129 1   
   128  121  123 ar  
   129  121  130 1   
   130  122  124 ar  
   131  122  131 1   
   132  123  124 ar  
   133  123  132 1   
   134  124  133 1   
   135  134  135 1   
   136  134  140 1   
   137  135  136 1   
   138  135  138 1   
   139  135  141 1   
   140  136  137 2   
   141  136  148 1   
   142  138  139 1   
   143  138  142 1   
   144  138  143 1   
   145  139  140 1   
   146  139  144 1   
   147  139  145 1   
   148  140  146 1   
   149  140  147 1   
   150  148  149 1   
   151  148  157 1   
   152  149  150 1   
   153  149  152 1   
   154  149  158 1   
   155  150  151 2   
   156  150  163 1   
   157  152  153 1   
   158  152  159 1   
   159  152  160 1   
   160  153  154 1   
   161  153  161 1   
   162  153  162 1   
   163  154  155 1   
   164  154  156 1   
   165  163  164 1   
   166  163  168 1   
   167  164  165 1   
   168  164  166 1   
   169  164  167 1   
   170  170  171 1   
   171  170  172 1   
@<TRIPOS>SUBSTRUCTURE
     1 MOL         1 TEMP              0 ****  ****    0 ROOT
