@<TRIPOS>MOLECULE
MOL
  183   181     1     0     0
SMALL
resp


@<TRIPOS>ATOM
      1 C1         -0.6940    1.5880    6.2560 c3        1 MOL     -0.124454
      2 C2         -1.0790    1.6000    4.7500 c         1 MOL      0.755207
      3 O1         -0.2820    2.0330    3.9320 o         1 MOL     -0.557666
      4 H1         -0.7330    0.5660    6.6320 hc        1 MOL      0.018289
      5 H2          0.3150    1.9810    6.3770 hc        1 MOL      0.018289
      6 H3         -1.3950    2.2080    6.8150 hc        1 MOL      0.018289
      7 N1         -2.2870    1.1330    4.3500 n         1 MOL     -0.757102
      8 C3         -2.8150    1.2920    3.0010 c3        1 MOL      0.234787
      9 C4         -3.3650    2.6910    2.7900 c         1 MOL      0.693477
     10 O2         -4.1240    3.1910    3.6370 o         1 MOL     -0.637467
     11 C5         -3.9180    0.2040    2.9180 c3        1 MOL     -0.257702
     12 C6         -4.5370   -0.0430    1.5400 c         1 MOL      0.710041
     13 O3         -5.4750   -0.8480    1.6080 o         1 MOL     -0.622604
     14 O4         -4.1350    0.5040    0.4960 o         1 MOL     -0.622604
     15 H4         -2.9560    1.0340    5.0990 hn        1 MOL      0.345669
     16 H5         -2.0190    1.1400    2.2670 h1        1 MOL     -0.028591
     17 H6         -4.6700    0.4310    3.6730 hc        1 MOL      0.068363
     18 H7         -3.5110   -0.7620    3.2130 hc        1 MOL      0.068363
     19 N2         -3.0330    3.3470    1.6810 n         1 MOL     -0.532540
     20 C7         -3.5650    4.7160    1.3220 c3        1 MOL      0.020831
     21 C8         -4.5020    4.6710    0.0530 c         1 MOL      0.419062
     22 O5         -5.3050    5.5660   -0.1600 o         1 MOL     -0.558523
     23 C9         -2.2600    5.6020    1.1830 c3        1 MOL      0.215502
     24 C10        -1.4820    5.6900    2.5030 c3        1 MOL      0.302614
     25 C11        -2.7390    6.9900    0.7270 c3        1 MOL     -0.523913
     26 C12        -0.1120    6.3390    2.4580 c3        1 MOL     -0.139501
     27 H8         -2.4860    2.8710    0.9820 hn        1 MOL      0.271783
     28 H9         -4.2080    5.0590    2.1370 h1        1 MOL      0.103294
     29 H10        -1.5990    5.0710    0.5070 hc        1 MOL      0.013428
     30 H11        -1.3430    4.7100    2.9670 hc        1 MOL     -0.102905
     31 H12        -2.0950    6.2480    3.2100 hc        1 MOL     -0.102905
     32 H13        -1.9050    7.6780    0.5820 hc        1 MOL      0.116456
     33 H14        -3.2660    7.0480   -0.2270 hc        1 MOL      0.116456
     34 H15        -3.4600    7.2890    1.4880 hc        1 MOL      0.116456
     35 H16         0.6260    5.7830    1.8730 hc        1 MOL      0.015959
     36 H17        -0.1540    7.3190    1.9740 hc        1 MOL      0.015959
     37 H18         0.3290    6.4060    3.4420 hc        1 MOL      0.015959
     38 N3         -4.3560    3.7400   -0.9450 n         1 MOL     -0.345869
     39 C13        -5.2800    3.5280   -2.1190 c3        1 MOL      0.223483
     40 C14        -6.3750    2.5920   -1.7820 c         1 MOL      0.368695
     41 O6         -7.3270    2.4750   -2.5260 o         1 MOL     -0.546972
     42 C15        -4.5090    3.2620   -3.4120 c3        1 MOL     -0.487078
     43 C16        -3.2960    2.2220   -3.2280 c         1 MOL      0.820136
     44 O7         -2.4810    2.0440   -4.1400 o         1 MOL     -0.686906
     45 O8         -3.2930    1.4410   -2.2790 o         1 MOL     -0.686906
     46 H19        -3.7780    2.9290   -0.7590 hn        1 MOL      0.211593
     47 H20        -5.7730    4.4670   -2.3820 h1        1 MOL      0.070707
     48 H21        -4.1310    4.2360   -3.7110 hc        1 MOL      0.125234
     49 H22        -5.2690    2.8320   -4.0570 hc        1 MOL      0.125234
     50 N4         -6.3020    1.8070   -0.6860 n         1 MOL     -0.127359
     51 C17        -7.4650    1.0710   -0.1090 c3        1 MOL     -0.211782
     52 C18        -7.7750   -0.1750   -0.8670 c         1 MOL      0.575969
     53 O9         -8.9890   -0.3970   -1.1540 o         1 MOL     -0.642524
     54 H23        -5.4110    1.6710   -0.2280 hn        1 MOL      0.139679
     55 H24        -8.2940    1.7820   -0.0320 h1        1 MOL      0.088652
     56 H25        -7.1500    0.7230    0.8800 h1        1 MOL      0.088652
     57 N5         -6.8320   -1.0190   -1.1210 n         1 MOL     -0.134812
     58 C19        -7.0610   -2.3000   -1.8170 c3        1 MOL      0.086686
     59 C20        -6.9680   -3.4810   -0.7870 c         1 MOL      0.378548
     60 O10        -7.2830   -4.6150   -1.1830 o         1 MOL     -0.563559
     61 C21        -5.9890   -2.4100   -2.9050 c3        1 MOL     -0.277882
     62 C22        -4.5850   -2.0700   -2.4820 c         1 MOL      0.737627
     63 O11        -3.7340   -1.7470   -3.3840 o         1 MOL     -0.698311
     64 O12        -4.2070   -2.2840   -1.2840 o         1 MOL     -0.698311
     65 H26        -5.8630   -0.9040   -0.8530 hn        1 MOL      0.030038
     66 H27        -8.0730   -2.3470   -2.2190 h1        1 MOL      0.073031
     67 H28        -6.3640   -1.8150   -3.7460 hc        1 MOL      0.077320
     68 H29        -5.9170   -3.4460   -3.2150 hc        1 MOL      0.077320
     69 N6         -6.6060   -3.1500    0.4390 n         1 MOL     -0.214400
     70 C23        -6.4220   -4.1160    1.4870 c3        1 MOL     -0.124142
     71 C24        -5.0040   -4.7210    1.6560 c         1 MOL      0.545483
     72 O13        -4.8760   -5.4510    2.5980 o         1 MOL     -0.599854
     73 H30        -6.3660   -2.2170    0.7430 hn        1 MOL      0.195374
     74 H31        -7.1670   -4.9200    1.4600 h1        1 MOL      0.075147
     75 H32        -6.5740   -3.6320    2.4590 h1        1 MOL      0.075147
     76 N7         -4.0350   -4.3120    0.8540 n         1 MOL     -0.311876
     77 C25        -2.6370   -4.7390    0.9730 c3        1 MOL      0.220067
     78 C26        -1.8300   -3.4800    1.1250 c         1 MOL      0.453565
     79 O14        -2.2490   -2.3140    0.9340 o         1 MOL     -0.584264
     80 C27        -2.1340   -5.4940   -0.2430 c3        1 MOL      0.005469
     81 C28        -2.3350   -4.9430   -1.6640 c3        1 MOL     -0.203762
     82 C29        -1.2680   -4.0000   -2.1330 c         1 MOL      0.770550
     83 N8         -0.4910   -4.3990   -3.0680 n         1 MOL     -0.778894
     84 O15        -1.1470   -2.8680   -1.6960 o         1 MOL     -0.712293
     85 H33        -4.2400   -3.6080    0.1580 hn        1 MOL      0.256074
     86 H34        -2.5480   -5.4570    1.7810 h1        1 MOL      0.026005
     87 H35        -2.7030   -6.4150   -0.0900 hc        1 MOL     -0.015697
     88 H36        -1.0880   -5.7220   -0.0390 hc        1 MOL     -0.015697
     89 H37        -3.2800   -4.4570   -1.8580 hc        1 MOL      0.062612
     90 H38        -2.3270   -5.7750   -2.3690 hc        1 MOL      0.062612
     91 H39        -0.6020   -5.2640   -3.5820 hn        1 MOL      0.357626
     92 H40         0.0860   -3.6670   -3.4510 hn        1 MOL      0.357626
     93 N9         -0.5730   -3.6720    1.5130 n         1 MOL     -0.469321
     94 C30         0.5070   -2.7620    1.8260 c3        1 MOL      0.023269
     95 C31         1.7730   -3.1450    0.9770 c         1 MOL      0.422397
     96 O16         2.5990   -4.0240    1.2760 o         1 MOL     -0.573378
     97 C32         0.7260   -2.6690    3.3710 c3        1 MOL      0.211861
     98 C33         1.9570   -1.7940    3.8620 c3        1 MOL     -0.354867
     99 C34        -0.5200   -2.0930    4.0590 c3        1 MOL     -0.354867
    100 H41        -0.3770   -4.6270    1.7490 hn        1 MOL      0.283734
    101 H42         0.2860   -1.7380    1.5370 h1        1 MOL      0.141253
    102 H43         0.9060   -3.7090    3.6470 hc        1 MOL     -0.029341
    103 H44         1.6890   -0.7360    3.8440 hc        1 MOL      0.086406
    104 H45         2.3260   -1.9820    4.8780 hc        1 MOL      0.086406
    105 H46         2.8110   -2.0020    3.2170 hc        1 MOL      0.086406
    106 H47        -0.4280   -2.3200    5.1190 hc        1 MOL      0.086406
    107 H48        -0.5290   -1.0250    3.8100 hc        1 MOL      0.086406
    108 H49        -1.4580   -2.5310    3.7200 hc        1 MOL      0.086406
    109 N10         1.8990   -2.4620   -0.1320 n         1 MOL     -0.086005
    110 C35         2.9620   -2.6180   -1.0580 c3        1 MOL     -0.025527
    111 C36         4.2350   -1.8950   -0.5730 c         1 MOL      0.471237
    112 O17         4.1990   -1.1280    0.3450 o         1 MOL     -0.409751
    113 C37         2.5630   -2.0810   -2.4730 c3        1 MOL     -0.396176
    114 C38         2.8890   -0.7110   -2.8310 c         1 MOL      0.617266
    115 N11         1.9610    0.1510   -2.7360 n         1 MOL     -0.706283
    116 O18         4.0070   -0.3840   -3.2560 o         1 MOL     -0.617908
    117 H50         1.2580   -1.6940   -0.2750 hn        1 MOL      0.114084
    118 H51         3.2100   -3.6660   -1.1630 h1        1 MOL      0.054229
    119 H52         1.5060   -2.2170   -2.7220 hc        1 MOL      0.134965
    120 H53         3.0690   -2.6610   -3.2420 hc        1 MOL      0.134965
    121 H54         1.1510   -0.1020   -2.1870 hn        1 MOL      0.390021
    122 H55         2.0270    1.0560   -3.1720 hn        1 MOL      0.390021
    123 N12         5.3880   -2.0810   -1.2510 n         1 MOL     -0.499611
    124 C39         6.7090   -1.7030   -0.5940 c3        1 MOL      0.174565
    125 C40         6.8900   -0.1080   -0.5770 c         1 MOL      0.443949
    126 O19         7.5410    0.4590    0.3220 o         1 MOL     -0.488920
    127 C41         7.8840   -2.2410   -1.4370 c3        1 MOL     -0.259791
    128 C42         9.2420   -1.9590   -0.8400 ca        1 MOL      0.016225
    129 C43         9.8630   -2.9710   -0.0450 ca        1 MOL     -0.137840
    130 C44        10.0660   -0.8220   -1.1420 ca        1 MOL     -0.137840
    131 C45        11.1390   -2.7810    0.5730 ca        1 MOL     -0.265935
    132 C46        11.3400   -0.6990   -0.6430 ca        1 MOL     -0.265935
    133 C47        11.8410   -1.6070    0.2890 ca        1 MOL      0.337648
    134 O20        12.9160   -1.2900    1.0530 oh        1 MOL     -0.516268
    135 H56         5.3500   -2.5810   -2.1260 hn        1 MOL      0.279840
    136 H57         6.8260   -2.1390    0.3960 h1        1 MOL      0.083211
    137 H58         7.8800   -1.8310   -2.4540 hc        1 MOL      0.096370
    138 H59         7.7710   -3.3280   -1.4330 hc        1 MOL      0.096370
    139 H60         9.3110   -3.8520    0.2200 ha        1 MOL      0.134720
    140 H61         9.5570   -0.0640   -1.7120 ha        1 MOL      0.134720
    141 H62        11.5510   -3.6010    1.1390 ha        1 MOL      0.139269
    142 H63        11.8700    0.2260   -0.8160 ha        1 MOL      0.139269
    143 H64        13.0290   -0.3430    0.9250 ho        1 MOL      0.377588
    144 N13         6.2520    0.6010   -1.5020 n         1 MOL     -0.330868
    145 C48         6.1370    2.0780   -1.4140 c3        1 MOL      0.022617
    146 C49         5.4870    2.4460   -0.0690 c         1 MOL      0.237168
    147 O21         5.7700    3.4620    0.5740 o         1 MOL     -0.505045
    148 C50         5.3170    2.6510   -2.5610 c3        1 MOL      0.065698
    149 C51         5.4490    4.1800   -2.8160 c3        1 MOL     -0.294941
    150 C52         4.4830    4.5480   -3.9340 c         1 MOL      0.740390
    151 O22         3.3640    5.0300   -3.6430 o         1 MOL     -0.745915
    152 O23         4.8820    4.4070   -5.1280 o         1 MOL     -0.745915
    153 H65         5.7810    0.2110   -2.3030 hn        1 MOL      0.235576
    154 H66         7.1260    2.5310   -1.4210 h1        1 MOL      0.079227
    155 H67         4.2900    2.2960   -2.4220 hc        1 MOL      0.011678
    156 H68         5.6350    2.2230   -3.5090 hc        1 MOL      0.011678
    157 H69         6.4630    4.4190   -3.1600 hc        1 MOL      0.042327
    158 H70         5.3660    4.6970   -1.8610 hc        1 MOL      0.042327
    159 N14         4.4430    1.7020    0.3860 n         1 MOL      0.080938
    160 C53         3.6850    1.9310    1.6080 c3        1 MOL     -0.330268
    161 C54         4.4250    1.3920    2.8470 c         1 MOL      0.552591
    162 O24         4.2190    1.9100    3.9290 o         1 MOL     -0.598994
    163 C55         2.2620    1.3060    1.5260 c3        1 MOL      0.259682
    164 C56         1.5500    1.7970    0.2620 c3        1 MOL     -0.142145
    165 C57         0.2320    1.0770    0.0280 c         1 MOL      0.638119
    166 O25        -0.8390    1.7060    0.1020 o         1 MOL     -0.679282
    167 O26         0.2040   -0.1200   -0.3780 o         1 MOL     -0.679282
    168 H71         4.1000    0.9200   -0.1610 hn        1 MOL      0.238383
    169 H72         3.5140    3.0120    1.6320 h1        1 MOL      0.132428
    170 H73         1.7820    1.6890    2.4140 hc        1 MOL     -0.005708
    171 H74         2.3290    0.2130    1.5050 hc        1 MOL     -0.005708
    172 H75         2.2400    1.8220   -0.5830 hc        1 MOL      0.032876
    173 H76         1.2770    2.8330    0.4220 hc        1 MOL      0.032876
    174 N15         5.1230    0.3230    2.7220 n         1 MOL     -0.019278
    175 C58         6.0080   -0.1300    3.8010 c3        1 MOL     -0.348607
    176 H77         5.8330   -1.1900    3.9920 h1        1 MOL      0.108103
    177 H78         7.0470    0.0190    3.5060 h1        1 MOL      0.108103
    178 H79         5.8010    0.4410    4.7060 h1        1 MOL      0.108103
    179 H80         5.4200    0.0750    1.7940 hn        1 MOL      0.044967
    180 Ca1        -2.2580   -0.6090   -1.0330 Ca        1 MOL      1.700641
    181 O27        -0.8310    0.1810   -3.1170 oh        1 MOL     -0.784060
    182 H81        -1.2680    0.8950   -3.5730 ho        1 MOL      0.362367
    183 H82        -0.2600   -0.2200   -3.7760 ho        1 MOL      0.362367
@<TRIPOS>BOND
     1    1    2 1   
     2    1    4 1   
     3    1    5 1   
     4    1    6 1   
     5    2    3 2   
     6    2    7 1   
     7    7    8 1   
     8    7   15 1   
     9    8    9 1   
    10    8   11 1   
    11    8   16 1   
    12    9   10 2   
    13    9   19 1   
    14   11   12 1   
    15   11   17 1   
    16   11   18 1   
    17   12   13 1   
    18   12   14 1   
    19   19   20 1   
    20   19   27 1   
    21   20   21 1   
    22   20   23 1   
    23   20   28 1   
    24   21   22 2   
    25   21   38 1   
    26   23   24 1   
    27   23   25 1   
    28   23   29 1   
    29   24   26 1   
    30   24   30 1   
    31   24   31 1   
    32   25   32 1   
    33   25   33 1   
    34   25   34 1   
    35   26   35 1   
    36   26   36 1   
    37   26   37 1   
    38   38   39 1   
    39   38   46 1   
    40   39   40 1   
    41   39   42 1   
    42   39   47 1   
    43   40   41 2   
    44   40   50 1   
    45   42   43 1   
    46   42   48 1   
    47   42   49 1   
    48   43   44 1   
    49   43   45 1   
    50   50   51 1   
    51   50   54 1   
    52   51   52 1   
    53   51   55 1   
    54   51   56 1   
    55   52   53 2   
    56   52   57 1   
    57   57   58 1   
    58   57   65 1   
    59   58   59 1   
    60   58   61 1   
    61   58   66 1   
    62   59   60 2   
    63   59   69 1   
    64   61   62 1   
    65   61   67 1   
    66   61   68 1   
    67   62   63 1   
    68   62   64 1   
    69   69   70 1   
    70   69   73 1   
    71   70   71 1   
    72   70   74 1   
    73   70   75 1   
    74   71   72 2   
    75   71   76 1   
    76   76   77 1   
    77   76   85 1   
    78   77   78 1   
    79   77   80 1   
    80   77   86 1   
    81   78   79 2   
    82   78   93 1   
    83   80   81 1   
    84   80   87 1   
    85   80   88 1   
    86   81   82 1   
    87   81   89 1   
    88   81   90 1   
    89   82   83 1   
    90   82   84 2   
    91   83   91 1   
    92   83   92 1   
    93   93   94 1   
    94   93  100 1   
    95   94   95 1   
    96   94   97 1   
    97   94  101 1   
    98   95   96 2   
    99   95  109 1   
   100   97   98 1   
   101   97   99 1   
   102   97  102 1   
   103   98  103 1   
   104   98  104 1   
   105   98  105 1   
   106   99  106 1   
   107   99  107 1   
   108   99  108 1   
   109  109  110 1   
   110  109  117 1   
   111  110  111 1   
   112  110  113 1   
   113  110  118 1   
   114  111  112 2   
   115  111  123 1   
   116  113  114 1   
   117  113  119 1   
   118  113  120 1   
   119  114  115 1   
   120  114  116 2   
   121  115  121 1   
   122  115  122 1   
   123  123  124 1   
   124  123  135 1   
   125  124  125 1   
   126  124  127 1   
   127  124  136 1   
   128  125  126 2   
   129  125  144 1   
   130  127  128 1   
   131  127  137 1   
   132  127  138 1   
   133  128  129 ar  
   134  128  130 ar  
   135  129  131 ar  
   136  129  139 1   
   137  130  132 ar  
   138  130  140 1   
   139  131  133 ar  
   140  131  141 1   
   141  132  133 ar  
   142  132  142 1   
   143  133  134 1   
   144  134  143 1   
   145  144  145 1   
   146  144  153 1   
   147  145  146 1   
   148  145  148 1   
   149  145  154 1   
   150  146  147 2   
   151  146  159 1   
   152  148  149 1   
   153  148  155 1   
   154  148  156 1   
   155  149  150 1   
   156  149  157 1   
   157  149  158 1   
   158  150  151 1   
   159  150  152 1   
   160  159  160 1   
   161  159  168 1   
   162  160  161 1   
   163  160  163 1   
   164  160  169 1   
   165  161  162 2   
   166  161  174 1   
   167  163  164 1   
   168  163  170 1   
   169  163  171 1   
   170  164  165 1   
   171  164  172 1   
   172  164  173 1   
   173  165  166 1   
   174  165  167 1   
   175  174  175 1   
   176  174  179 1   
   177  175  176 1   
   178  175  177 1   
   179  175  178 1   
   180  181  182 1   
   181  181  183 1   
@<TRIPOS>SUBSTRUCTURE
     1 MOL         1 TEMP              0 ****  ****    0 ROOT
