@<TRIPOS>MOLECULE
MOL
  182   178     1     0     0
SMALL
resp


@<TRIPOS>ATOM
      1 C1         -1.5440   -2.6690    6.3720 c3        1 MOL     -0.310966
      2 C2         -1.2740   -2.3440    4.9030 c         1 MOL      0.768959
      3 O1         -2.1530   -2.3860    4.0410 o         1 MOL     -0.604133
      4 H1         -1.2320   -3.6930    6.5810 hc        1 MOL      0.080794
      5 H2         -0.9840   -1.9820    7.0070 hc        1 MOL      0.080794
      6 H3         -2.6100   -2.5660    6.5770 hc        1 MOL      0.080794
      7 N1          0.0020   -2.1710    4.5560 n         1 MOL     -0.632992
      8 C3          0.4640   -2.1790    3.1460 c3        1 MOL      0.139203
      9 C4          0.7810   -3.6160    2.5950 c         1 MOL      0.545749
     10 O2          1.5360   -4.3920    3.1240 o         1 MOL     -0.538796
     11 C5          1.6920   -1.2180    2.9820 c3        1 MOL     -0.225905
     12 C6          2.6990   -1.4210    1.8540 c         1 MOL      0.658061
     13 O3          3.7880   -0.9080    2.0500 o         1 MOL     -0.598610
     14 O4          2.4330   -1.9460    0.7500 o         1 MOL     -0.598610
     15 H4          0.6290   -1.7820    5.2530 hn        1 MOL      0.326705
     16 H5         -0.3200   -1.7420    2.5320 h1        1 MOL      0.042637
     17 H6          2.2520   -1.1590    3.9150 hc        1 MOL      0.065613
     18 H7          1.3470   -0.1930    2.8060 hc        1 MOL      0.065613
     19 N2          0.1740   -3.9670    1.4330 n         1 MOL     -0.218299
     20 C7          0.1830   -5.3160    0.8450 c3        1 MOL     -0.026536
     21 C8          1.5550   -5.6480    0.1980 c         1 MOL      0.488771
     22 O5          1.9590   -6.8310    0.2430 o         1 MOL     -0.555065
     23 C9         -1.0480   -5.5020   -0.0800 c3        1 MOL     -0.138427
     24 C10        -1.0340   -4.8590   -1.4950 c3        1 MOL     -0.235618
     25 C11        -2.2550   -5.2990   -2.3680 c3        1 MOL     -0.084819
     26 C12        -2.1740   -4.4540   -3.6270 c3        1 MOL      0.050428
     27 N3         -1.0770   -4.9040   -4.5150 n4        1 MOL     -0.266690
     28 H8         -0.4600   -3.3250    0.9730 hn        1 MOL      0.126372
     29 H9          0.1230   -6.0170    1.6690 h1        1 MOL      0.107498
     30 H10        -1.9260   -5.2430    0.5060 hc        1 MOL      0.082602
     31 H11        -1.2220   -6.5530   -0.3010 hc        1 MOL      0.082602
     32 H12        -0.1080   -5.1160   -2.0010 hc        1 MOL      0.138533
     33 H13        -1.0650   -3.7820   -1.3720 hc        1 MOL      0.138533
     34 H14        -3.2160   -5.2090   -1.8750 hc        1 MOL      0.071820
     35 H15        -2.2780   -6.2960   -2.7990 hc        1 MOL      0.071820
     36 H16        -2.1920   -3.3910   -3.3610 hx        1 MOL      0.029490
     37 H17        -3.0340   -4.7230   -4.2340 hx        1 MOL      0.029490
     38 H18        -0.1270   -4.7320   -4.2050 hn        1 MOL      0.287188
     39 H19        -1.0940   -5.9090   -4.6470 hn        1 MOL      0.287188
     40 H20        -1.1540   -4.5230   -5.4440 hn        1 MOL      0.287188
     41 N4          2.3040   -4.6780   -0.3280 n         1 MOL     -0.184866
     42 C13         3.5210   -4.8540   -1.1730 c3        1 MOL      0.011233
     43 C14         4.8020   -4.5290   -0.3920 c         1 MOL      0.511132
     44 O6          5.8490   -4.9100   -0.8320 o         1 MOL     -0.540935
     45 C15         3.4100   -4.0310   -2.4710 c3        1 MOL     -0.182928
     46 C16         1.9360   -3.7410   -2.9360 c         1 MOL      0.812007
     47 O7          1.3050   -2.7530   -2.4810 o         1 MOL     -0.736914
     48 O8          1.5210   -4.4460   -3.8940 o         1 MOL     -0.736914
     49 H21         1.9450   -3.7370   -0.3300 hn        1 MOL     -0.154110
     50 H22         3.7150   -5.8920   -1.4780 h1        1 MOL      0.100215
     51 H23         3.9180   -4.6530   -3.2210 hc        1 MOL      0.063103
     52 H24         3.8130   -3.0480   -2.2720 hc        1 MOL      0.063103
     53 N5          4.7550   -3.7910    0.6970 n         1 MOL     -0.277125
     54 C17         5.9430   -3.3470    1.4160 c3        1 MOL     -0.152009
     55 C18         6.6610   -2.2320    0.7440 c         1 MOL      0.510273
     56 O9          7.8880   -2.2630    0.6470 o         1 MOL     -0.558246
     57 H25         3.8690   -3.3610    0.9190 hn        1 MOL      0.273799
     58 H26         6.6140   -4.1960    1.5980 h1        1 MOL      0.106084
     59 H27         5.6280   -2.9400    2.3760 h1        1 MOL      0.106084
     60 N6          5.9010   -1.2500    0.2630 n         1 MOL     -0.091012
     61 C19         6.4230   -0.0640   -0.4580 c3        1 MOL     -0.132691
     62 C20         6.4050    1.2440    0.3120 c         1 MOL      0.417942
     63 O10         6.9360    2.2200   -0.1380 o         1 MOL     -0.473362
     64 C21         5.7900   -0.0800   -1.9110 c3        1 MOL     -0.049994
     65 C22         4.4100    0.5470   -1.9650 c         1 MOL      0.487438
     66 N7          4.3450    1.6550   -2.5880 n         1 MOL     -0.723695
     67 O11         3.4860    0.1430   -1.2750 o         1 MOL     -0.525817
     68 H28         4.9380   -1.2870    0.5420 hn        1 MOL      0.045893
     69 H29         7.4870   -0.2300   -0.6270 h1        1 MOL      0.120462
     70 H30         5.7850   -1.1180   -2.2530 hc        1 MOL      0.052360
     71 H31         6.3620    0.3920   -2.7010 hc        1 MOL      0.052360
     72 H32         5.1290    1.9920   -3.1360 hn        1 MOL      0.366382
     73 H33         3.4290    2.0270   -2.7630 hn        1 MOL      0.366382
     74 N8          5.5890    1.3220    1.4100 n         1 MOL     -0.162139
     75 C23         5.5670    2.4940    2.3610 c3        1 MOL     -0.277548
     76 C24         4.4290    3.5560    2.0490 c         1 MOL      0.489566
     77 O12         4.2310    4.4900    2.7900 o         1 MOL     -0.549108
     78 H34         5.1690    0.4380    1.6750 hn        1 MOL      0.181251
     79 H35         6.5010    3.0370    2.4750 h1        1 MOL      0.143104
     80 H36         5.2740    2.1120    3.3370 h1        1 MOL      0.143104
     81 N9          3.6680    3.2710    0.9950 n         1 MOL     -0.031810
     82 C25         2.4050    3.9350    0.6160 c3        1 MOL      0.108221
     83 C26         1.2470    2.9280    0.7510 c         1 MOL      0.456211
     84 O13         1.4240    1.6730    0.5670 o         1 MOL     -0.648751
     85 C27         2.5860    4.4530   -0.8110 c3        1 MOL      0.115398
     86 C28         3.6810    5.4970   -0.9030 ca        1 MOL     -0.176845
     87 C29         5.0330    5.1130   -0.9850 ca        1 MOL     -0.051446
     88 C30         3.3890    6.8220   -0.8200 ca        1 MOL     -0.051446
     89 C31         6.0840    6.0460   -1.1630 ca        1 MOL     -0.298047
     90 C32         4.4530    7.7920   -0.7540 ca        1 MOL     -0.298047
     91 C33         5.7460    7.3750   -0.9920 ca        1 MOL      0.378379
     92 O14         6.7600    8.2540   -1.1250 oh        1 MOL     -0.463172
     93 H37         3.8860    2.3730    0.5730 hn        1 MOL      0.141228
     94 H38         2.2020    4.7670    1.2940 h1        1 MOL      0.023495
     95 H39         1.6560    4.8700   -1.2040 hc        1 MOL     -0.016236
     96 H40         2.9120    3.5690   -1.3610 hc        1 MOL     -0.016236
     97 H41         5.2300    4.0630   -1.1480 ha        1 MOL      0.089711
     98 H42         2.4110    7.2690   -0.7530 ha        1 MOL      0.089711
     99 H43         7.1300    5.7830   -1.2070 ha        1 MOL      0.157354
    100 H44         4.2500    8.8430   -0.6660 ha        1 MOL      0.157354
    101 H45         6.4480    9.1590   -1.1420 ho        1 MOL      0.337254
    102 N10         0.0630    3.4830    1.1380 n         1 MOL     -0.521161
    103 C34        -1.2230    2.8650    1.1940 c3        1 MOL      0.088538
    104 C35        -2.1610    3.5760    0.2060 c         1 MOL      0.441971
    105 O15        -2.4930    4.7460    0.3130 o         1 MOL     -0.503658
    106 C36        -1.7420    3.0140    2.6460 c3        1 MOL     -0.025534
    107 C37        -1.2460    1.7860    3.3960 c3        1 MOL      0.076534
    108 C38        -3.3400    2.9830    2.8000 c3        1 MOL     -0.199068
    109 C39        -1.6160    1.6460    4.8440 c3        1 MOL     -0.129407
    110 H46         0.0480    4.4820    1.3310 hn        1 MOL      0.324620
    111 H47        -1.1790    1.8110    0.9070 h1        1 MOL      0.069785
    112 H48        -1.3590    3.9450    3.0820 hc        1 MOL      0.062685
    113 H49        -0.1740    1.7010    3.2540 hc        1 MOL      0.009132
    114 H50        -1.6510    0.9500    2.8310 hc        1 MOL      0.009132
    115 H51        -3.6220    3.1710    3.8360 hc        1 MOL      0.053007
    116 H52        -3.8690    3.5550    2.0370 hc        1 MOL      0.053007
    117 H53        -3.6600    1.9800    2.5230 hc        1 MOL      0.053007
    118 H54        -2.6880    1.5000    4.9970 hc        1 MOL      0.026912
    119 H55        -1.0590    0.8220    5.2790 hc        1 MOL      0.026912
    120 H56        -1.3340    2.5160    5.4350 hc        1 MOL      0.026912
    121 N11        -2.6570    2.6770   -0.7100 n         1 MOL     -0.321060
    122 C40        -3.7230    2.9050   -1.7690 c3        1 MOL     -0.142545
    123 C41        -5.0750    2.8850   -1.0370 c         1 MOL      0.606112
    124 O16        -5.2410    2.3900    0.0450 o         1 MOL     -0.370771
    125 C42        -3.6880    1.8150   -2.8300 c3        1 MOL     -0.146768
    126 O17        -3.7130    0.5730   -2.2920 oh        1 MOL     -0.487375
    127 H57        -2.3000    1.7440   -0.5730 hn        1 MOL      0.354740
    128 H58        -3.6130    3.8870   -2.2220 h1        1 MOL      0.101750
    129 H59        -2.7570    1.9300   -3.3720 h1        1 MOL      0.100264
    130 H60        -4.5370    1.8390   -3.5200 h1        1 MOL      0.100264
    131 H61        -2.9450    0.4900   -1.7210 ho        1 MOL      0.372965
    132 N12        -6.0910    3.5080   -1.6250 n         1 MOL     -0.587424
    133 C43        -7.5230    3.6100   -1.0800 c3        1 MOL      0.201950
    134 C44        -8.1380    2.1630   -0.9860 c         1 MOL      0.344232
    135 O18        -8.9340    1.9250   -0.1110 o         1 MOL     -0.513438
    136 C45        -8.2890    4.4990   -2.0610 c3        1 MOL     -0.296626
    137 H62        -5.9310    3.9050   -2.5390 hn        1 MOL      0.299603
    138 H63        -7.5530    3.9920   -0.0640 h1        1 MOL      0.086932
    139 H64        -9.3420    4.5100   -1.7560 hc        1 MOL      0.093089
    140 H65        -7.9690    5.5440   -1.9680 hc        1 MOL      0.093089
    141 H66        -8.1330    4.1310   -3.0770 hc        1 MOL      0.093089
    142 N13        -7.6510    1.2070   -1.6930 n         1 MOL     -0.199331
    143 C46        -8.0250   -0.1740   -1.7380 c3        1 MOL      0.044526
    144 C47        -7.3260   -0.9420   -0.6140 c         1 MOL      0.415300
    145 O19        -7.9820   -1.7850   -0.0960 o         1 MOL     -0.481374
    146 C48        -7.6880   -0.7000   -3.1550 c3        1 MOL     -0.136392
    147 H67        -6.9860    1.5520   -2.3760 hn        1 MOL      0.218093
    148 H68        -9.0980   -0.2170   -1.5980 h1        1 MOL      0.098400
    149 H69        -6.6040   -0.8300   -3.2270 hc        1 MOL      0.038192
    150 H70        -8.1210   -1.6700   -3.4040 hc        1 MOL      0.038192
    151 H71        -7.9660    0.0490   -3.8900 hc        1 MOL      0.038192
    152 N14        -6.0160   -0.6670   -0.2690 n         1 MOL     -0.209187
    153 C49        -5.3790   -1.3890    0.8950 c3        1 MOL     -0.080031
    154 C50        -6.0470   -0.9000    2.2280 c         1 MOL      0.413902
    155 O20        -6.3960   -1.7010    3.0790 o         1 MOL     -0.489976
    156 C51        -3.9390   -1.0720    0.9040 c3        1 MOL      0.053573
    157 C52        -3.0810   -1.8270   -0.0750 c3        1 MOL      0.012845
    158 C53        -1.7970   -1.1350   -0.2820 c         1 MOL      0.836525
    159 O21        -0.7500   -1.8170   -0.0840 o         1 MOL     -0.811735
    160 O22        -1.7080    0.0200   -0.7410 o         1 MOL     -0.811735
    161 H72        -5.5980    0.0520   -0.8410 hn        1 MOL      0.096918
    162 H73        -5.5510   -2.4560    0.7640 h1        1 MOL      0.101481
    163 H74        -3.4680   -1.1930    1.8830 hc        1 MOL      0.009540
    164 H75        -3.9260    0.0050    0.7360 hc        1 MOL      0.009540
    165 H76        -3.6390   -1.9400   -1.0110 hc        1 MOL      0.008117
    166 H77        -2.8620   -2.8260    0.3100 hc        1 MOL      0.008117
    167 N15        -6.4550    0.4050    2.1970 n         1 MOL     -0.046433
    168 C54        -7.1100    1.1530    3.2990 c3        1 MOL     -0.369553
    169 H78        -7.3450    2.1620    2.9630 h1        1 MOL      0.136216
    170 H79        -8.0290    0.6430    3.5880 h1        1 MOL      0.136216
    171 H80        -6.4370    1.2030    4.1550 h1        1 MOL      0.136216
    172 H81        -5.9340    1.0170    1.5880 hn        1 MOL      0.101375
    173 Ca1         1.0650   -0.5770   -1.2400 Ca        1 MOL      1.798738
    174 O23        -0.4430   -0.4270   -3.3900 oh        1 MOL     -0.820635
    175 H82        -0.8640    0.2570   -3.9100 ho        1 MOL      0.401153
    176 H83        -0.5070   -1.2210   -3.9240 ho        1 MOL      0.401153
    177 O24         1.1600    1.7670   -2.5820 oh        1 MOL     -0.820635
    178 H84         1.3160    1.4300   -3.4590 ho        1 MOL      0.401153
    179 H85         0.6830    2.5840   -2.7290 ho        1 MOL      0.401153
    180 O25         2.3380   -0.6210   -4.1860 oh        1 MOL     -0.820635
    181 H86         2.9630   -1.3030   -4.4450 ho        1 MOL      0.401153
    182 H87         2.0120   -0.2620   -5.0120 ho        1 MOL      0.401153
@<TRIPOS>BOND
     1    1    2 1   
     2    1    4 1   
     3    1    5 1   
     4    1    6 1   
     5    2    3 2   
     6    2    7 1   
     7    7    8 1   
     8    7   15 1   
     9    8    9 1   
    10    8   11 1   
    11    8   16 1   
    12    9   10 2   
    13    9   19 1   
    14   11   12 1   
    15   11   17 1   
    16   11   18 1   
    17   12   13 1   
    18   12   14 1   
    19   19   20 1   
    20   19   28 1   
    21   20   21 1   
    22   20   23 1   
    23   20   29 1   
    24   21   22 2   
    25   21   41 1   
    26   23   24 1   
    27   23   30 1   
    28   23   31 1   
    29   24   25 1   
    30   24   32 1   
    31   24   33 1   
    32   25   26 1   
    33   25   34 1   
    34   25   35 1   
    35   26   27 1   
    36   26   36 1   
    37   26   37 1   
    38   27   38 1   
    39   27   39 1   
    40   27   40 1   
    41   41   42 1   
    42   41   49 1   
    43   42   43 1   
    44   42   45 1   
    45   42   50 1   
    46   43   44 2   
    47   43   53 1   
    48   45   46 1   
    49   45   51 1   
    50   45   52 1   
    51   46   47 1   
    52   46   48 1   
    53   53   54 1   
    54   53   57 1   
    55   54   55 1   
    56   54   58 1   
    57   54   59 1   
    58   55   56 2   
    59   55   60 1   
    60   60   61 1   
    61   60   68 1   
    62   61   62 1   
    63   61   64 1   
    64   61   69 1   
    65   62   63 2   
    66   62   74 1   
    67   64   65 1   
    68   64   70 1   
    69   64   71 1   
    70   65   66 1   
    71   65   67 2   
    72   66   72 1   
    73   66   73 1   
    74   74   75 1   
    75   74   78 1   
    76   75   76 1   
    77   75   79 1   
    78   75   80 1   
    79   76   77 2   
    80   76   81 1   
    81   81   82 1   
    82   81   93 1   
    83   82   83 1   
    84   82   85 1   
    85   82   94 1   
    86   83   84 2   
    87   83  102 1   
    88   85   86 1   
    89   85   95 1   
    90   85   96 1   
    91   86   87 ar  
    92   86   88 ar  
    93   87   89 ar  
    94   87   97 1   
    95   88   90 ar  
    96   88   98 1   
    97   89   91 ar  
    98   89   99 1   
    99   90   91 ar  
   100   90  100 1   
   101   91   92 1   
   102   92  101 1   
   103  102  103 1   
   104  102  110 1   
   105  103  104 1   
   106  103  106 1   
   107  103  111 1   
   108  104  105 2   
   109  104  121 1   
   110  106  107 1   
   111  106  108 1   
   112  106  112 1   
   113  107  109 1   
   114  107  113 1   
   115  107  114 1   
   116  108  115 1   
   117  108  116 1   
   118  108  117 1   
   119  109  118 1   
   120  109  119 1   
   121  109  120 1   
   122  121  122 1   
   123  121  127 1   
   124  122  123 1   
   125  122  125 1   
   126  122  128 1   
   127  123  124 2   
   128  123  132 1   
   129  125  126 1   
   130  125  129 1   
   131  125  130 1   
   132  126  131 1   
   133  132  133 1   
   134  132  137 1   
   135  133  134 1   
   136  133  136 1   
   137  133  138 1   
   138  134  135 2   
   139  134  142 1   
   140  136  139 1   
   141  136  140 1   
   142  136  141 1   
   143  142  143 1   
   144  142  147 1   
   145  143  144 1   
   146  143  146 1   
   147  143  148 1   
   148  144  145 2   
   149  144  152 1   
   150  146  149 1   
   151  146  150 1   
   152  146  151 1   
   153  152  153 1   
   154  152  161 1   
   155  153  154 1   
   156  153  156 1   
   157  153  162 1   
   158  154  155 2   
   159  154  167 1   
   160  156  157 1   
   161  156  163 1   
   162  156  164 1   
   163  157  158 1   
   164  157  165 1   
   165  157  166 1   
   166  158  159 1   
   167  158  160 1   
   168  167  168 1   
   169  167  172 1   
   170  168  169 1   
   171  168  170 1   
   172  168  171 1   
   173  174  175 1   
   174  174  176 1   
   175  177  178 1   
   176  177  179 1   
   177  180  181 1   
   178  180  182 1   
@<TRIPOS>SUBSTRUCTURE
     1 MOL         1 TEMP              0 ****  ****    0 ROOT
