@<TRIPOS>MOLECULE
MOL
  179   176     1     0     0
SMALL
resp


@<TRIPOS>ATOM
      1 C1          2.1630    3.3770    4.3500 c3        1 MOL     -0.252339
      2 C2          1.2660    3.0260    3.1340 c         1 MOL      0.584054
      3 O1          1.7290    3.1220    2.0230 o         1 MOL     -0.548013
      4 H1          1.8990    4.3670    4.7220 hc        1 MOL      0.065593
      5 H2          2.0110    2.6410    5.1400 hc        1 MOL      0.065593
      6 H3          3.2100    3.3720    4.0440 hc        1 MOL      0.065593
      7 N1         -0.0660    2.8950    3.2620 n         1 MOL     -0.554473
      8 C3         -1.0290    2.6700    2.1400 c3        1 MOL      0.023625
      9 C4         -1.6570    3.9660    1.8660 c         1 MOL      0.595607
     10 O2         -2.7620    4.2100    2.3370 o         1 MOL     -0.481411
     11 C5         -2.1150    1.6000    2.4900 c3        1 MOL     -0.526407
     12 C6         -3.2690    1.3100    1.4570 c         1 MOL      0.737912
     13 O3         -4.4330    1.3140    1.8420 o         1 MOL     -0.618861
     14 O4         -2.9710    1.1600    0.2240 o         1 MOL     -0.618861
     15 H4         -0.4710    2.9430    4.1860 hn        1 MOL      0.334851
     16 H5         -0.3900    2.2850    1.3410 h1        1 MOL      0.099626
     17 H6         -2.5260    1.9550    3.4350 hc        1 MOL      0.145048
     18 H7         -1.6750    0.6220    2.6440 hc        1 MOL      0.145048
     19 N2         -1.1460    4.8310    0.9500 n         1 MOL     -0.566861
     20 C7         -1.6860    6.2070    0.6700 c3        1 MOL      0.113426
     21 C8         -2.8570    6.1670   -0.2670 c         1 MOL      0.308527
     22 O5         -3.7670    7.0100   -0.4110 o         1 MOL     -0.508888
     23 C9         -0.5570    6.9830    0.0500 c3        1 MOL     -0.151979
     24 C10         0.6910    7.1420    0.9280 c3        1 MOL      0.183143
     25 C11         1.6740    8.2240    0.4380 c3        1 MOL     -0.064390
     26 C12         2.8670    8.3550    1.3350 c3        1 MOL     -0.022540
     27 N3          3.5490    7.0810    1.5040 n4        1 MOL     -0.337958
     28 H8         -0.2130    4.6090    0.6340 hn        1 MOL      0.372441
     29 H9         -2.0940    6.6880    1.5550 h1        1 MOL      0.088177
     30 H10        -0.8840    7.9710   -0.2890 hc        1 MOL      0.054451
     31 H11        -0.1850    6.4530   -0.8250 hc        1 MOL      0.054451
     32 H12         1.1920    6.2050    1.1470 hc        1 MOL     -0.038843
     33 H13         0.3710    7.4450    1.9220 hc        1 MOL     -0.038843
     34 H14         1.0520    9.1110    0.3550 hc        1 MOL      0.050355
     35 H15         1.9430    7.9740   -0.5860 hc        1 MOL      0.050355
     36 H16         2.5910    8.9430    2.2070 hx        1 MOL      0.099251
     37 H17         3.6120    8.9990    0.8610 hx        1 MOL      0.099251
     38 H18         3.5160    6.4960    0.6800 hn        1 MOL      0.332906
     39 H19         4.5190    7.1970    1.7820 hn        1 MOL      0.332906
     40 H20         3.2580    6.5300    2.3000 hn        1 MOL      0.332906
     41 N4         -2.7850    5.1170   -1.1580 n         1 MOL     -0.000795
     42 C13        -3.5870    4.7930   -2.4040 c3        1 MOL     -0.161598
     43 C14        -4.9470    4.0900   -2.0050 c         1 MOL      0.493760
     44 O6         -5.8170    3.8470   -2.8280 o         1 MOL     -0.534202
     45 C15        -2.6610    3.8950   -3.2430 c3        1 MOL     -0.141599
     46 C16        -2.2620    2.6190   -2.5380 c         1 MOL      0.612263
     47 O7         -1.2140    2.5990   -1.8130 o         1 MOL     -0.660595
     48 O8         -2.8310    1.5520   -2.8360 o         1 MOL     -0.660595
     49 H21        -2.0240    4.4690   -1.0210 hn        1 MOL      0.030371
     50 H22        -3.9390    5.6560   -2.9610 h1        1 MOL      0.124648
     51 H23        -1.8370    4.5400   -3.5580 hc        1 MOL      0.062555
     52 H24        -3.1440    3.5440   -4.1670 hc        1 MOL      0.062555
     53 N5         -5.1200    3.6570   -0.7520 n         1 MOL     -0.250954
     54 C17        -6.4640    3.3260   -0.1460 c3        1 MOL     -0.189567
     55 C18        -6.9520    1.9180   -0.4280 c         1 MOL      0.570898
     56 O9         -8.1520    1.6850   -0.3120 o         1 MOL     -0.588655
     57 H25        -4.4230    3.8270   -0.0460 hn        1 MOL      0.269724
     58 H26        -7.1980    4.0640   -0.4720 h1        1 MOL      0.109611
     59 H27        -6.4420    3.4100    0.9490 h1        1 MOL      0.109611
     60 N6         -6.0330    1.0210   -0.7910 n         1 MOL     -0.160074
     61 C19        -6.3120   -0.3500   -1.2560 c3        1 MOL     -0.083483
     62 C20        -6.2390   -1.4770   -0.2270 c         1 MOL      0.224267
     63 O10        -6.5520   -2.5780   -0.5770 o         1 MOL     -0.463022
     64 C21        -5.5680   -0.6080   -2.5300 c3        1 MOL     -0.234408
     65 C22        -4.3820   -1.5920   -2.4020 c         1 MOL      0.634006
     66 N7         -4.2420   -2.5800   -3.2660 n         1 MOL     -0.724001
     67 O11        -3.5820   -1.4760   -1.5230 o         1 MOL     -0.472676
     68 H28        -5.0650    1.2110   -0.5610 hn        1 MOL      0.097005
     69 H29        -7.3520   -0.3210   -1.5920 h1        1 MOL      0.154004
     70 H30        -5.1030    0.3080   -2.9090 hc        1 MOL      0.097521
     71 H31        -6.2810   -1.0140   -3.2380 hc        1 MOL      0.097521
     72 H32        -4.9900   -2.7790   -3.9120 hn        1 MOL      0.340985
     73 H33        -3.5090   -3.2360   -3.0390 hn        1 MOL      0.340985
     74 N8         -5.8060   -1.3040    0.9470 n         1 MOL      0.008458
     75 C23        -5.8020   -2.3050    2.0290 c3        1 MOL     -0.326886
     76 C24        -4.5710   -3.2180    2.1820 c         1 MOL      0.565996
     77 O12        -4.5200   -4.0940    3.0670 o         1 MOL     -0.589446
     78 H34        -5.4500   -0.3800    1.1770 hn        1 MOL      0.171682
     79 H35        -6.6710   -2.9550    1.8710 h1        1 MOL      0.144863
     80 H36        -5.9160   -1.7150    2.9340 h1        1 MOL      0.144863
     81 N9         -3.6050   -3.0600    1.3020 n         1 MOL     -0.094931
     82 C25        -2.3690   -3.8130    1.2850 c3        1 MOL      0.195965
     83 C26        -1.1670   -2.8090    1.1650 c         1 MOL      0.217482
     84 O13        -1.3390   -1.6390    0.7490 o         1 MOL     -0.555454
     85 C27        -2.4160   -4.7530    0.1520 c3        1 MOL      0.277278
     86 C28        -3.5840   -5.7580    0.1790 ca        1 MOL     -0.061914
     87 C29        -4.7830   -5.4760   -0.4870 ca        1 MOL     -0.157283
     88 C30        -3.4130   -6.9570    0.9260 ca        1 MOL     -0.157283
     89 C31        -5.8250   -6.4200   -0.3750 ca        1 MOL     -0.280364
     90 C32        -4.5050   -7.8390    1.1150 ca        1 MOL     -0.280364
     91 C33        -5.7340   -7.6030    0.3960 ca        1 MOL      0.390857
     92 O14        -6.7310   -8.5120    0.4510 oh        1 MOL     -0.486358
     93 H37        -3.7150   -2.3590    0.5760 hn        1 MOL      0.046817
     94 H38        -2.1770   -4.3810    2.1950 h1        1 MOL     -0.003008
     95 H39        -1.5800   -5.4400    0.2720 hc        1 MOL     -0.089640
     96 H40        -2.2800   -4.1740   -0.7670 hc        1 MOL     -0.089640
     97 H41        -4.8230   -4.6220   -1.1370 ha        1 MOL      0.133139
     98 H42        -2.5010   -7.1720    1.4680 ha        1 MOL      0.133139
     99 H43        -6.7360   -6.0330   -0.7990 ha        1 MOL      0.148949
    100 H44        -4.4720   -8.7180    1.7410 ha        1 MOL      0.148949
    101 H45        -6.4100   -9.3070    0.8820 ho        1 MOL      0.352973
    102 N10         0.0530   -3.2890    1.5220 n         1 MOL     -0.183513
    103 C34         1.3190   -2.5820    1.3470 c3        1 MOL     -0.294937
    104 C35         2.4080   -3.5930    0.7800 c         1 MOL      0.582213
    105 O15         2.3330   -4.8250    0.9320 o         1 MOL     -0.556385
    106 C36         1.8380   -1.8110    2.5980 c3        1 MOL      0.274608
    107 C37         1.9850   -2.8760    3.7360 c3        1 MOL     -0.327757
    108 C38         0.9000   -0.7070    3.0610 c3        1 MOL     -0.365900
    109 C39         2.5000   -2.3630    5.0630 c3        1 MOL     -0.034923
    110 H46         0.0500   -4.2220    1.9050 hn        1 MOL      0.248287
    111 H47         1.2130   -1.7810    0.6200 h1        1 MOL      0.156648
    112 H48         2.8360   -1.3890    2.4460 hc        1 MOL     -0.028229
    113 H49         2.6330   -3.6400    3.3220 hc        1 MOL      0.117954
    114 H50         1.0360   -3.3410    4.0250 hc        1 MOL      0.117954
    115 H51         1.3290   -0.2690    3.9630 hc        1 MOL      0.126927
    116 H52         0.8210    0.1250    2.3530 hc        1 MOL      0.126927
    117 H53        -0.0990   -1.0770    3.2870 hc        1 MOL      0.126927
    118 H54         2.9610   -3.1480    5.6600 hc        1 MOL      0.017756
    119 H55         3.3190   -1.6510    4.9410 hc        1 MOL      0.017756
    120 H56         1.7510   -1.9140    5.7140 hc        1 MOL      0.017756
    121 N11         3.4020   -3.0470    0.0970 n         1 MOL     -0.432019
    122 C40         4.4670   -3.7490   -0.6550 c3        1 MOL      0.286267
    123 C41         5.8840   -3.2530   -0.1220 c         1 MOL      0.242287
    124 O16         5.9830   -2.2230    0.4790 o         1 MOL     -0.336743
    125 C42         4.4300   -3.3270   -2.1490 c3        1 MOL     -0.368081
    126 O17         4.7790   -1.9370   -2.3090 oh        1 MOL     -0.322183
    127 H57         3.3860   -2.0450    0.1010 hn        1 MOL      0.276847
    128 H58         4.3540   -4.8350   -0.6950 h1        1 MOL      0.052637
    129 H59         3.4110   -3.4430   -2.5300 h1        1 MOL      0.142674
    130 H60         5.2720   -3.7930   -2.6700 h1        1 MOL      0.142674
    131 H61         4.1320   -1.6800   -2.9640 ho        1 MOL      0.372345
    132 N12         6.9580   -3.9460   -0.4840 n         1 MOL     -0.382179
    133 C43         8.3400   -3.4520   -0.2480 c3        1 MOL      0.253583
    134 C44         8.4970   -2.0670   -0.8530 c         1 MOL      0.421182
    135 O18         9.1970   -1.2220   -0.2550 o         1 MOL     -0.527828
    136 C45         9.3360   -4.5210   -0.7710 c3        1 MOL     -0.329837
    137 H62         6.7820   -4.8210   -0.9510 hn        1 MOL      0.261165
    138 H63         8.5600   -3.3510    0.8200 h1        1 MOL      0.068958
    139 H64        10.0830   -4.0100   -1.3870 hc        1 MOL      0.093453
    140 H65         9.6930   -5.1920    0.0020 hc        1 MOL      0.093453
    141 H66         8.8280   -5.1560   -1.5030 hc        1 MOL      0.093453
    142 N13         7.8440   -1.7840   -1.9750 n         1 MOL     -0.270483
    143 C46         8.0410   -0.4880   -2.5870 c3        1 MOL      0.049572
    144 C47         7.3610    0.7080   -1.9100 c         1 MOL      0.355019
    145 O19         7.9260    1.7720   -1.8740 o         1 MOL     -0.499675
    146 C48         7.7500   -0.6090   -4.1140 c3        1 MOL     -0.230581
    147 H67         7.2990   -2.5160   -2.3910 hn        1 MOL      0.211498
    148 H68         9.1160   -0.3020   -2.5850 h1        1 MOL      0.103693
    149 H69         8.4660   -1.3150   -4.5240 hc        1 MOL      0.063753
    150 H70         6.6940   -0.8430   -4.2570 hc        1 MOL      0.063753
    151 H71         7.8820    0.3360   -4.6220 hc        1 MOL      0.063753
    152 N14         6.1750    0.4820   -1.3550 n         1 MOL      0.041883
    153 C49         5.4590    1.3190   -0.4350 c3        1 MOL     -0.407396
    154 C50         6.1960    1.5430    0.8820 c         1 MOL      0.516874
    155 O20         6.2940    2.6810    1.3260 o         1 MOL     -0.568650
    156 C51         4.0230    0.8350   -0.2140 c3        1 MOL      0.331668
    157 C52         3.1380    1.0330   -1.4820 c3        1 MOL     -0.016983
    158 C53         1.6930    0.5870   -1.2720 c         1 MOL      0.718176
    159 O21         1.1480    0.0470   -2.2380 o         1 MOL     -0.789522
    160 O22         1.0370    0.7720   -0.2340 o         1 MOL     -0.789522
    161 H72         5.7600   -0.4200   -1.5640 hn        1 MOL      0.041861
    162 H73         5.4610    2.2910   -0.9140 h1        1 MOL      0.144470
    163 H74         3.4860    1.3880    0.5610 hc        1 MOL     -0.050800
    164 H75         4.0520   -0.2370    0.0060 hc        1 MOL     -0.050800
    165 H76         3.6350    0.5910   -2.3400 hc        1 MOL     -0.040400
    166 H77         3.2640    2.1120   -1.5300 hc        1 MOL     -0.040400
    167 N15         6.8180    0.4490    1.3550 n         1 MOL     -0.001130
    168 C54         7.5100    0.4640    2.6100 c3        1 MOL     -0.458892
    169 H78         8.3290    1.1820    2.5650 h1        1 MOL      0.149330
    170 H79         6.8190    0.7500    3.4030 h1        1 MOL      0.149330
    171 H80         7.9090   -0.5290    2.8170 h1        1 MOL      0.149330
    172 H81         6.7360   -0.4270    0.8540 hn        1 MOL      0.084003
    173 Ca1        -1.2390    0.0540   -1.3660 Ca        1 MOL      1.732059
    174 O23        -0.9350   -2.5120   -2.0090 oh        1 MOL     -0.816325
    175 H82        -0.4720   -3.3460   -1.9480 ho        1 MOL      0.404087
    176 H83        -0.8470   -2.2540   -2.9270 ho        1 MOL      0.404087
    177 O24        -0.9160   -0.6390   -4.1120 oh        1 MOL     -0.816325
    178 H84         0.0320   -0.5620   -4.2460 ho        1 MOL      0.404087
    179 H85        -1.2650   -0.8500   -4.9900 ho        1 MOL      0.404087
@<TRIPOS>BOND
     1    1    2 1   
     2    1    4 1   
     3    1    5 1   
     4    1    6 1   
     5    2    3 2   
     6    2    7 1   
     7    7    8 1   
     8    7   15 1   
     9    8    9 1   
    10    8   11 1   
    11    8   16 1   
    12    9   10 2   
    13    9   19 1   
    14   11   12 1   
    15   11   17 1   
    16   11   18 1   
    17   12   13 1   
    18   12   14 1   
    19   19   20 1   
    20   19   28 1   
    21   20   21 1   
    22   20   23 1   
    23   20   29 1   
    24   21   22 2   
    25   21   41 1   
    26   23   24 1   
    27   23   30 1   
    28   23   31 1   
    29   24   25 1   
    30   24   32 1   
    31   24   33 1   
    32   25   26 1   
    33   25   34 1   
    34   25   35 1   
    35   26   27 1   
    36   26   36 1   
    37   26   37 1   
    38   27   38 1   
    39   27   39 1   
    40   27   40 1   
    41   41   42 1   
    42   41   49 1   
    43   42   43 1   
    44   42   45 1   
    45   42   50 1   
    46   43   44 2   
    47   43   53 1   
    48   45   46 1   
    49   45   51 1   
    50   45   52 1   
    51   46   47 1   
    52   46   48 1   
    53   53   54 1   
    54   53   57 1   
    55   54   55 1   
    56   54   58 1   
    57   54   59 1   
    58   55   56 2   
    59   55   60 1   
    60   60   61 1   
    61   60   68 1   
    62   61   62 1   
    63   61   64 1   
    64   61   69 1   
    65   62   63 2   
    66   62   74 1   
    67   64   65 1   
    68   64   70 1   
    69   64   71 1   
    70   65   66 1   
    71   65   67 2   
    72   66   72 1   
    73   66   73 1   
    74   74   75 1   
    75   74   78 1   
    76   75   76 1   
    77   75   79 1   
    78   75   80 1   
    79   76   77 2   
    80   76   81 1   
    81   81   82 1   
    82   81   93 1   
    83   82   83 1   
    84   82   85 1   
    85   82   94 1   
    86   83   84 2   
    87   83  102 1   
    88   85   86 1   
    89   85   95 1   
    90   85   96 1   
    91   86   87 ar  
    92   86   88 ar  
    93   87   89 ar  
    94   87   97 1   
    95   88   90 ar  
    96   88   98 1   
    97   89   91 ar  
    98   89   99 1   
    99   90   91 ar  
   100   90  100 1   
   101   91   92 1   
   102   92  101 1   
   103  102  103 1   
   104  102  110 1   
   105  103  104 1   
   106  103  106 1   
   107  103  111 1   
   108  104  105 2   
   109  104  121 1   
   110  106  107 1   
   111  106  108 1   
   112  106  112 1   
   113  107  109 1   
   114  107  113 1   
   115  107  114 1   
   116  108  115 1   
   117  108  116 1   
   118  108  117 1   
   119  109  118 1   
   120  109  119 1   
   121  109  120 1   
   122  121  122 1   
   123  121  127 1   
   124  122  123 1   
   125  122  125 1   
   126  122  128 1   
   127  123  124 2   
   128  123  132 1   
   129  125  126 1   
   130  125  129 1   
   131  125  130 1   
   132  126  131 1   
   133  132  133 1   
   134  132  137 1   
   135  133  134 1   
   136  133  136 1   
   137  133  138 1   
   138  134  135 2   
   139  134  142 1   
   140  136  139 1   
   141  136  140 1   
   142  136  141 1   
   143  142  143 1   
   144  142  147 1   
   145  143  144 1   
   146  143  146 1   
   147  143  148 1   
   148  144  145 2   
   149  144  152 1   
   150  146  149 1   
   151  146  150 1   
   152  146  151 1   
   153  152  153 1   
   154  152  161 1   
   155  153  154 1   
   156  153  156 1   
   157  153  162 1   
   158  154  155 2   
   159  154  167 1   
   160  156  157 1   
   161  156  163 1   
   162  156  164 1   
   163  157  158 1   
   164  157  165 1   
   165  157  166 1   
   166  158  159 1   
   167  158  160 1   
   168  167  168 1   
   169  167  172 1   
   170  168  169 1   
   171  168  170 1   
   172  168  171 1   
   173  174  175 1   
   174  174  176 1   
   175  177  178 1   
   176  177  179 1   
@<TRIPOS>SUBSTRUCTURE
     1 MOL         1 TEMP              0 ****  ****    0 ROOT
