@<TRIPOS>MOLECULE
MOL
  189   185     1     0     0
SMALL
resp


@<TRIPOS>ATOM
      1 C1         -0.5080    1.4070    6.4230 c3        1 MOL     -0.350919
      2 C2         -0.7370    1.2390    4.9020 c         1 MOL      0.656846
      3 O1          0.1550    1.4770    4.0920 o         1 MOL     -0.602455
      4 H1         -0.7730    2.4220    6.7190 hc        1 MOL      0.095673
      5 H2         -1.1310    0.6970    6.9650 hc        1 MOL      0.095673
      6 H3          0.5410    1.2230    6.6560 hc        1 MOL      0.095673
      7 N1         -1.9760    0.9790    4.4740 n         1 MOL     -0.553165
      8 C3         -2.3510    1.0180    3.1190 c3        1 MOL      0.029593
      9 C4         -2.6120    2.5260    2.9060 c         1 MOL      0.536817
     10 O2         -3.6330    3.0910    3.3920 o         1 MOL     -0.537844
     11 C5         -3.5870    0.0650    3.0310 c3        1 MOL     -0.189937
     12 C6         -4.2550    0.0140    1.6160 c         1 MOL      0.786690
     13 O3         -3.6720    0.5230    0.6140 o         1 MOL     -0.678586
     14 O4         -5.3770   -0.5970    1.5990 o         1 MOL     -0.678586
     15 H4         -2.6670    0.6360    5.1330 hn        1 MOL      0.335430
     16 H5         -1.5360    0.6540    2.4910 h1        1 MOL      0.012674
     17 H6         -4.2920    0.4050    3.7900 hc        1 MOL      0.045987
     18 H7         -3.3390   -0.9440    3.3600 hc        1 MOL      0.045987
     19 N2         -1.6460    3.2230    2.2800 n         1 MOL     -0.093730
     20 C7         -1.6800    4.6960    2.2720 c3        1 MOL     -0.279822
     21 C8         -2.9220    5.3200    1.4960 c         1 MOL      0.677741
     22 O5         -3.3090    6.4160    1.7870 o         1 MOL     -0.566225
     23 C9         -0.3650    5.2740    1.6340 c3        1 MOL     -0.063416
     24 C10        -0.1060    4.8170    0.1780 c3        1 MOL      0.352911
     25 C11         1.1320    5.4040   -0.4760 c3        1 MOL     -0.220701
     26 C12         1.5810    4.7160   -1.8140 c3        1 MOL      0.050413
     27 N3          0.5520    4.8770   -2.8450 n4        1 MOL     -0.238527
     28 H8         -0.8390    2.8170    1.8440 hn        1 MOL      0.238697
     29 H9         -1.7820    5.0080    3.3090 h1        1 MOL      0.128863
     30 H10         0.4700    4.9040    2.2310 hc        1 MOL      0.040604
     31 H11        -0.3250    6.3600    1.7520 hc        1 MOL      0.040604
     32 H12        -0.9330    5.1900   -0.4250 hc        1 MOL     -0.089576
     33 H13        -0.1220    3.7240    0.1290 hc        1 MOL     -0.089576
     34 H14         1.9350    5.4260    0.2550 hc        1 MOL      0.050832
     35 H15         0.9400    6.4620   -0.6290 hc        1 MOL      0.050832
     36 H16         1.7510    3.6430   -1.7240 hx        1 MOL      0.046008
     37 H17         2.5100    5.1660   -2.1380 hx        1 MOL      0.046008
     38 H18        -0.3490    4.4200   -2.8110 hn        1 MOL      0.275724
     39 H19         0.2590    5.8370   -2.9650 hn        1 MOL      0.275724
     40 H20         0.9180    4.5440   -3.7260 hn        1 MOL      0.275724
     41 N4         -3.4050    4.5510    0.5460 n         1 MOL     -0.565362
     42 C13        -4.2420    4.9540   -0.5750 c3        1 MOL      0.261459
     43 C14        -5.5100    4.0750   -0.7770 c         1 MOL      0.274790
     44 O6         -6.3530    4.2170   -1.6340 o         1 MOL     -0.483598
     45 C15        -3.4830    4.9460   -1.8840 c3        1 MOL     -0.415282
     46 C16        -2.6760    3.6220   -2.1330 c         1 MOL      1.178134
     47 O7         -2.7180    2.6270   -1.3830 o         1 MOL     -0.872988
     48 O8         -1.8650    3.6520   -3.1450 o         1 MOL     -0.872988
     49 H21        -2.8970    3.6840    0.4150 hn        1 MOL      0.205579
     50 H22        -4.6110    5.9810   -0.4750 h1        1 MOL      0.078328
     51 H23        -2.7940    5.7890   -1.8670 hc        1 MOL      0.087928
     52 H24        -4.1950    4.8760   -2.7190 hc        1 MOL      0.087928
     53 N5         -5.6810    2.9960   -0.0280 n         1 MOL      0.064379
     54 C17        -6.8550    2.1040    0.1150 c3        1 MOL     -0.407365
     55 C18        -7.0310    1.2090   -1.0900 c         1 MOL      0.754467
     56 O9         -7.5290    1.6410   -2.1220 o         1 MOL     -0.531590
     57 H25        -4.8550    2.7240    0.4830 hn        1 MOL      0.085051
     58 H26        -7.7940    2.6600    0.2160 h1        1 MOL      0.133160
     59 H27        -6.7980    1.4910    1.0140 h1        1 MOL      0.133160
     60 N6         -6.6540   -0.1010   -0.9770 n         1 MOL     -0.528567
     61 C19        -7.0260   -1.1760   -1.8850 c3        1 MOL      0.008702
     62 C20        -6.9590   -2.5300   -1.1680 c         1 MOL      0.452778
     63 O10        -7.3010   -3.5680   -1.7730 o         1 MOL     -0.562731
     64 C21        -6.0530   -1.1800   -3.1570 c3        1 MOL      0.021714
     65 C22        -4.5470   -1.0240   -2.8560 c         1 MOL      0.670172
     66 O11        -4.0500   -1.7680   -1.9950 o         1 MOL     -0.739919
     67 O12        -3.9310   -0.0110   -3.2640 o         1 MOL     -0.739919
     68 H28        -6.1470   -0.3410   -0.1360 hn        1 MOL      0.215517
     69 H29        -8.0650   -1.1000   -2.2310 h1        1 MOL      0.087584
     70 H30        -6.3600   -0.4300   -3.8810 hc        1 MOL      0.004305
     71 H31        -6.2610   -2.1360   -3.6380 hc        1 MOL      0.004305
     72 N7         -6.6190   -2.6320    0.0730 n         1 MOL     -0.263074
     73 C23        -6.5860   -3.8610    0.9750 c3        1 MOL     -0.180109
     74 C24        -5.2480   -4.5520    0.9050 c         1 MOL      0.588694
     75 O13        -5.2140   -5.6680    1.4000 o         1 MOL     -0.548103
     76 H32        -6.2660   -1.7880    0.5080 hn        1 MOL      0.257318
     77 H33        -7.4180   -4.5250    0.7230 h1        1 MOL      0.115142
     78 H34        -6.7410   -3.4920    1.9880 h1        1 MOL      0.115142
     79 N8         -4.2590   -3.9350    0.2210 n         1 MOL     -0.227997
     80 C25        -2.9560   -4.5920    0.0060 c3        1 MOL     -0.312529
     81 C26        -1.7420   -3.6400    0.2520 c         1 MOL      0.728837
     82 O14        -1.7610   -2.4250    0.0200 o         1 MOL     -0.678297
     83 C27        -2.7380   -5.1670   -1.4160 c3        1 MOL      0.662930
     84 C28        -3.4490   -6.5340   -1.5410 c3        1 MOL     -0.497717
     85 O15        -3.3030   -4.3020   -2.3410 oh        1 MOL     -0.705227
     86 H35        -4.2470   -2.9280    0.1700 hn        1 MOL      0.193834
     87 H36        -2.9300   -5.4160    0.7200 h1        1 MOL      0.086458
     88 H37        -1.6550   -5.2350   -1.5570 h1        1 MOL     -0.092047
     89 H38        -3.6430   -3.4810   -1.9650 ho        1 MOL      0.426227
     90 H39        -3.0850   -7.1250   -0.7010 hc        1 MOL      0.122013
     91 H40        -4.5250   -6.3960   -1.4380 hc        1 MOL      0.122013
     92 H41        -3.0590   -7.0070   -2.4400 hc        1 MOL      0.122013
     93 N9         -0.6650   -4.1950    0.7470 n         1 MOL     -0.468993
     94 C29         0.5730   -3.4840    1.0270 c3        1 MOL      0.087660
     95 C30         1.5800   -3.8390   -0.0590 c         1 MOL      0.403658
     96 O16         2.0860   -5.0040   -0.0980 o         1 MOL     -0.527173
     97 C31         1.1630   -3.9160    2.4480 c3        1 MOL      0.115793
     98 C32         0.3380   -3.5110    3.5910 c3        1 MOL     -0.295191
     99 C33         2.6140   -3.5150    2.7880 c3        1 MOL     -0.177344
    100 C34         0.0970   -2.0410    3.8480 c3        1 MOL      0.193400
    101 H42        -0.5120   -5.1940    0.7060 hn        1 MOL      0.269071
    102 H43         0.4110   -2.4010    1.0500 h1        1 MOL      0.089395
    103 H44         1.1350   -5.0100    2.4570 hc        1 MOL      0.015074
    104 H45         0.8180   -3.9620    4.4660 hc        1 MOL      0.055076
    105 H46        -0.6460   -3.9430    3.4170 hc        1 MOL      0.055076
    106 H47         2.9780   -3.5940    3.8100 hc        1 MOL      0.033744
    107 H48         3.2960   -4.0620    2.1280 hc        1 MOL      0.033744
    108 H49         2.7360   -2.4490    2.6130 hc        1 MOL      0.033744
    109 H50         0.9510   -1.5430    4.3120 hc        1 MOL     -0.012627
    110 H51        -0.2140   -1.5460    2.9290 hc        1 MOL     -0.012627
    111 H52        -0.7050   -2.0110    4.5830 hc        1 MOL     -0.012627
    112 N10         2.0000   -2.7940   -0.7610 n         1 MOL     -0.162567
    113 C35         3.1030   -2.8440   -1.6540 c3        1 MOL     -0.051027
    114 C36         4.4710   -2.6200   -0.9380 c         1 MOL      0.339055
    115 O17         4.4680   -2.3120    0.2280 o         1 MOL     -0.317794
    116 C37         2.9630   -1.8290   -2.8000 c3        1 MOL      0.259811
    117 C38         1.7700   -1.9240   -3.7060 c3        1 MOL     -0.256224
    118 O18         2.9500   -0.5540   -2.2890 oh        1 MOL     -0.676297
    119 H53         1.6250   -1.8560   -0.6330 hn        1 MOL      0.158259
    120 H54         3.1820   -3.8150   -2.1550 h1        1 MOL      0.062057
    121 H55         3.9080   -1.8770   -3.3500 h1        1 MOL     -0.017451
    122 H56         2.0970   -0.3650   -1.8920 ho        1 MOL      0.421852
    123 H57         1.7000   -1.0050   -4.2890 hc        1 MOL      0.079773
    124 H58         1.9060   -2.7400   -4.4060 hc        1 MOL      0.079773
    125 H59         0.9190   -2.0540   -3.0340 hc        1 MOL      0.079773
    126 N11         5.6460   -2.8270   -1.5150 n         1 MOL     -0.235821
    127 C39         6.9340   -2.7050   -0.8910 c3        1 MOL     -0.083105
    128 C40         7.2390   -1.4060   -0.0740 c         1 MOL      0.226933
    129 O19         7.6560   -1.5700    1.1080 o         1 MOL     -0.457939
    130 C41         8.0630   -2.8010   -1.9290 c3        1 MOL      0.223394
    131 C42         8.2010   -4.0650   -2.7850 c3        1 MOL     -0.396930
    132 O20         8.1420   -1.7040   -2.8630 oh        1 MOL     -0.666573
    133 H60         5.5890   -3.3850   -2.3560 hn        1 MOL      0.249596
    134 H61         7.1280   -3.5970   -0.2970 h1        1 MOL      0.134110
    135 H62         9.0270   -2.8590   -1.4140 h1        1 MOL      0.074765
    136 H63         8.8990   -1.7690   -3.4580 ho        1 MOL      0.421351
    137 H64         7.4000   -4.2000   -3.5110 hc        1 MOL      0.116549
    138 H65         9.2010   -4.0870   -3.2360 hc        1 MOL      0.116549
    139 H66         8.2530   -4.9250   -2.1140 hc        1 MOL      0.116549
    140 N12         6.8690   -0.1930   -0.4720 n         1 MOL     -0.075638
    141 C43         7.1830    0.9860    0.3560 c3        1 MOL     -0.167132
    142 C44         6.2550    1.1220    1.4550 c         1 MOL      0.369371
    143 O21         6.6370    1.5580    2.5550 o         1 MOL     -0.485568
    144 C45         7.3440    2.2400   -0.5630 c3        1 MOL      0.091393
    145 C46         8.4760    2.2140   -1.5680 c3        1 MOL     -0.026528
    146 C47         8.3600    3.2820   -2.6450 c3        1 MOL     -0.114235
    147 C48         8.4120    4.7190   -2.0230 c3        1 MOL      0.010852
    148 N13         8.1970    5.6900   -3.1790 n4        1 MOL     -0.325811
    149 H67         6.4090   -0.2050   -1.3720 hn        1 MOL      0.247792
    150 H68         8.1350    0.7950    0.8430 h1        1 MOL      0.152726
    151 H69         7.5040    3.1210    0.0670 hc        1 MOL     -0.015043
    152 H70         6.4090    2.3650   -1.1050 hc        1 MOL     -0.015043
    153 H71         8.4580    1.2660   -2.1060 hc        1 MOL      0.036958
    154 H72         9.3590    2.1870   -0.9230 hc        1 MOL      0.036958
    155 H73         7.3770    3.1230   -3.0810 hc        1 MOL      0.056673
    156 H74         9.1730    3.0750   -3.3460 hc        1 MOL      0.056673
    157 H75         9.3750    4.8400   -1.5070 hx        1 MOL      0.120580
    158 H76         7.6490    4.8110   -1.2450 hx        1 MOL      0.120580
    159 H77         8.9260    5.7730   -3.8730 hn        1 MOL      0.301646
    160 H78         7.4640    5.3670   -3.8070 hn        1 MOL      0.301646
    161 H79         7.8710    6.5650   -2.7860 hn        1 MOL      0.301646
    162 N14         4.9890    0.7500    1.1640 n         1 MOL     -0.256128
    163 C49         3.9860    0.6430    2.2000 c3        1 MOL     -0.227875
    164 C50         4.3250   -0.3610    3.3670 c         1 MOL      0.519975
    165 O22         3.8490   -0.1870    4.4220 o         1 MOL     -0.512811
    166 C51         2.5630    0.2870    1.6050 c3        1 MOL      0.105800
    167 C52         1.9940    1.3360    0.5830 c3        1 MOL      0.051397
    168 C53         0.6910    0.7650   -0.0690 c         1 MOL      0.737746
    169 O23         0.7570    0.0150   -1.0430 o         1 MOL     -0.722247
    170 O24        -0.4820    1.0270    0.2780 o         1 MOL     -0.722247
    171 H80         4.7510    0.4260    0.2410 hn        1 MOL      0.232059
    172 H81         3.9930    1.6620    2.5940 h1        1 MOL      0.141929
    173 H82         1.8310    0.2630    2.4120 hc        1 MOL      0.024339
    174 H83         2.6440   -0.6740    1.0940 hc        1 MOL      0.024339
    175 H84         2.7320    1.5370   -0.1940 hc        1 MOL     -0.060624
    176 H85         1.7340    2.2460    1.1180 hc        1 MOL     -0.060624
    177 N15         5.2450   -1.3060    3.1150 n         1 MOL     -0.072757
    178 C54         5.7450   -2.1650    4.1760 c3        1 MOL     -0.304784
    179 H86         5.7130   -1.6280    5.1240 h1        1 MOL      0.112591
    180 H87         5.1240   -3.0590    4.2450 h1        1 MOL      0.112591
    181 H88         6.7740   -2.4530    3.9580 h1        1 MOL      0.112591
    182 H89         5.6380   -1.4880    2.1990 hn        1 MOL      0.161788
    183 Ca1        -2.1020    0.1430   -1.3960 Ca        1 MOL      1.827668
    184 O25        -0.6700    1.1880   -3.3290 oh        1 MOL     -0.860945
    185 H90        -1.0050    2.0840   -3.3800 ho        1 MOL      0.405022
    186 H91        -0.0990    1.1110   -4.0980 ho        1 MOL      0.405022
    187 O26        -1.7060   -1.9680   -3.4650 oh        1 MOL     -0.860945
    188 H92        -1.7510   -1.9350   -4.4190 ho        1 MOL      0.405022
    189 H93        -2.4840   -2.4430   -3.1990 ho        1 MOL      0.405022
@<TRIPOS>BOND
     1    1    2 1   
     2    1    4 1   
     3    1    5 1   
     4    1    6 1   
     5    2    3 2   
     6    2    7 1   
     7    7    8 1   
     8    7   15 1   
     9    8    9 1   
    10    8   11 1   
    11    8   16 1   
    12    9   10 2   
    13    9   19 1   
    14   11   12 1   
    15   11   17 1   
    16   11   18 1   
    17   12   13 1   
    18   12   14 1   
    19   19   20 1   
    20   19   28 1   
    21   20   21 1   
    22   20   23 1   
    23   20   29 1   
    24   21   22 2   
    25   21   41 1   
    26   23   24 1   
    27   23   30 1   
    28   23   31 1   
    29   24   25 1   
    30   24   32 1   
    31   24   33 1   
    32   25   26 1   
    33   25   34 1   
    34   25   35 1   
    35   26   27 1   
    36   26   36 1   
    37   26   37 1   
    38   27   38 1   
    39   27   39 1   
    40   27   40 1   
    41   41   42 1   
    42   41   49 1   
    43   42   43 1   
    44   42   45 1   
    45   42   50 1   
    46   43   44 2   
    47   43   53 1   
    48   45   46 1   
    49   45   51 1   
    50   45   52 1   
    51   46   47 1   
    52   46   48 1   
    53   53   54 1   
    54   53   57 1   
    55   54   55 1   
    56   54   58 1   
    57   54   59 1   
    58   55   56 2   
    59   55   60 1   
    60   60   61 1   
    61   60   68 1   
    62   61   62 1   
    63   61   64 1   
    64   61   69 1   
    65   62   63 2   
    66   62   72 1   
    67   64   65 1   
    68   64   70 1   
    69   64   71 1   
    70   65   66 1   
    71   65   67 1   
    72   72   73 1   
    73   72   76 1   
    74   73   74 1   
    75   73   77 1   
    76   73   78 1   
    77   74   75 2   
    78   74   79 1   
    79   79   80 1   
    80   79   86 1   
    81   80   81 1   
    82   80   83 1   
    83   80   87 1   
    84   81   82 2   
    85   81   93 1   
    86   83   84 1   
    87   83   85 1   
    88   83   88 1   
    89   84   90 1   
    90   84   91 1   
    91   84   92 1   
    92   85   89 1   
    93   93   94 1   
    94   93  101 1   
    95   94   95 1   
    96   94   97 1   
    97   94  102 1   
    98   95   96 2   
    99   95  112 1   
   100   97   98 1   
   101   97   99 1   
   102   97  103 1   
   103   98  100 1   
   104   98  104 1   
   105   98  105 1   
   106   99  106 1   
   107   99  107 1   
   108   99  108 1   
   109  100  109 1   
   110  100  110 1   
   111  100  111 1   
   112  112  113 1   
   113  112  119 1   
   114  113  114 1   
   115  113  116 1   
   116  113  120 1   
   117  114  115 2   
   118  114  126 1   
   119  116  117 1   
   120  116  118 1   
   121  116  121 1   
   122  117  123 1   
   123  117  124 1   
   124  117  125 1   
   125  118  122 1   
   126  126  127 1   
   127  126  133 1   
   128  127  128 1   
   129  127  130 1   
   130  127  134 1   
   131  128  129 2   
   132  128  140 1   
   133  130  131 1   
   134  130  132 1   
   135  130  135 1   
   136  131  137 1   
   137  131  138 1   
   138  131  139 1   
   139  132  136 1   
   140  140  141 1   
   141  140  149 1   
   142  141  142 1   
   143  141  144 1   
   144  141  150 1   
   145  142  143 2   
   146  142  162 1   
   147  144  145 1   
   148  144  151 1   
   149  144  152 1   
   150  145  146 1   
   151  145  153 1   
   152  145  154 1   
   153  146  147 1   
   154  146  155 1   
   155  146  156 1   
   156  147  148 1   
   157  147  157 1   
   158  147  158 1   
   159  148  159 1   
   160  148  160 1   
   161  148  161 1   
   162  162  163 1   
   163  162  171 1   
   164  163  164 1   
   165  163  166 1   
   166  163  172 1   
   167  164  165 2   
   168  164  177 1   
   169  166  167 1   
   170  166  173 1   
   171  166  174 1   
   172  167  168 1   
   173  167  175 1   
   174  167  176 1   
   175  168  169 1   
   176  168  170 1   
   177  177  178 1   
   178  177  182 1   
   179  178  179 1   
   180  178  180 1   
   181  178  181 1   
   182  184  185 1   
   183  184  186 1   
   184  187  188 1   
   185  187  189 1   
@<TRIPOS>SUBSTRUCTURE
     1 MOL         1 TEMP              0 ****  ****    0 ROOT
