@<TRIPOS>MOLECULE
MOL
  189   185     1     0     0
SMALL
resp


@<TRIPOS>ATOM
      1 C1         -0.2970    2.9070   -4.9180 c3        1 MOL     -0.457286
      2 C2          0.2660    2.5230   -3.5210 c         1 MOL      0.774747
      3 O1         -0.2770    2.9280   -2.5160 o         1 MOL     -0.611944
      4 H1         -0.7220    2.0230   -5.3940 hc        1 MOL      0.110042
      5 H2         -1.0720    3.6650   -4.8030 hc        1 MOL      0.110042
      6 H3          0.5070    3.3020   -5.5380 hc        1 MOL      0.110042
      7 N1          1.4950    2.0100   -3.5390 n         1 MOL     -0.677485
      8 C3          2.2530    1.5470   -2.3470 c3        1 MOL      0.461968
      9 C4          3.0790    2.6640   -1.7900 c         1 MOL      0.277008
     10 O2          4.2250    2.8310   -2.1760 o         1 MOL     -0.515458
     11 C5          3.1580    0.3560   -2.7090 c3        1 MOL     -0.456082
     12 C6          3.9070   -0.1600   -1.4420 c         1 MOL      0.850270
     13 O3          3.5630    0.2250   -0.3100 o         1 MOL     -0.699219
     14 O4          4.9460   -0.8530   -1.5230 o         1 MOL     -0.699219
     15 H4          1.9100    1.8560   -4.4410 hn        1 MOL      0.326003
     16 H5          1.5920    1.2390   -1.5420 h1        1 MOL     -0.060727
     17 H6          3.8230    0.5170   -3.5650 hc        1 MOL      0.098878
     18 H7          2.6270   -0.5010   -3.1210 hc        1 MOL      0.098878
     19 N2          2.4800    3.4640   -0.9080 n         1 MOL      0.008924
     20 C7          3.1330    4.6900   -0.3880 c3        1 MOL     -0.100482
     21 C8          3.9880    4.5130    0.8860 c         1 MOL      0.476306
     22 O5          4.6490    5.5040    1.2650 o         1 MOL     -0.589696
     23 C9          1.9830    5.7670   -0.3120 c3        1 MOL     -0.102834
     24 C10         1.7090    6.3460   -1.7040 c3        1 MOL     -0.013077
     25 C11         2.8380    7.2470   -2.2240 c3        1 MOL      0.030287
     26 C12         2.3370    8.2060   -3.3100 c3        1 MOL     -0.079687
     27 N3          3.4130    9.2330   -3.5910 n4        1 MOL     -0.228858
     28 H8          1.5840    3.2370   -0.5020 hn        1 MOL      0.212698
     29 H9          3.8670    5.1200   -1.0770 h1        1 MOL      0.054858
     30 H10         2.2040    6.5720    0.3980 hc        1 MOL      0.047112
     31 H11         1.0820    5.2260   -0.0240 hc        1 MOL      0.047112
     32 H12         0.7800    6.9090   -1.5730 hc        1 MOL      0.023971
     33 H13         1.5380    5.5470   -2.4220 hc        1 MOL      0.023971
     34 H14         3.6840    6.6810   -2.6120 hc        1 MOL      0.041801
     35 H15         3.1900    7.8200   -1.3700 hc        1 MOL      0.041801
     36 H16         1.4440    8.6730   -2.8870 hx        1 MOL      0.104304
     37 H17         2.1840    7.5910   -4.1990 hx        1 MOL      0.104304
     38 H18         4.3120    8.7910   -3.7370 hn        1 MOL      0.295065
     39 H19         3.0770    9.8380   -4.3260 hn        1 MOL      0.295065
     40 H20         3.5830    9.8310   -2.7950 hn        1 MOL      0.295065
     41 N4          4.0890    3.3570    1.4950 n         1 MOL     -0.216358
     42 C13         4.8750    3.0910    2.6840 c3        1 MOL      0.051645
     43 C14         6.0060    2.0670    2.3610 c         1 MOL      0.362475
     44 O6          6.8500    1.7230    3.2040 o         1 MOL     -0.516253
     45 C15         3.9870    2.7060    3.9050 c3        1 MOL     -0.183710
     46 C16         3.0350    1.5560    3.6730 c         1 MOL      0.755595
     47 O7          3.0840    0.8530    2.6180 o         1 MOL     -0.721972
     48 O8          2.1280    1.3000    4.4880 o         1 MOL     -0.721972
     49 H21         3.5590    2.6070    1.0650 hn        1 MOL      0.078642
     50 H22         5.3230    4.0470    2.9390 h1        1 MOL      0.087130
     51 H23         3.4340    3.6070    4.1740 hc        1 MOL      0.054574
     52 H24         4.5440    2.5170    4.8310 hc        1 MOL      0.054574
     53 N5          5.9760    1.6410    1.1020 n         1 MOL     -0.182114
     54 C17         7.1120    0.8750    0.4990 c3        1 MOL     -0.409893
     55 C18         7.2850   -0.6260    0.8520 c         1 MOL      0.618297
     56 O9          8.3230   -1.2670    0.7090 o         1 MOL     -0.605855
     57 H25         5.2340    1.9480    0.4870 hn        1 MOL      0.242346
     58 H26         7.9950    1.4280    0.8180 h1        1 MOL      0.167558
     59 H27         7.0150    1.0660   -0.5700 h1        1 MOL      0.167558
     60 N6          6.3140   -1.2570    1.4940 n         1 MOL     -0.246521
     61 C19         6.3900   -2.6480    1.9540 c3        1 MOL     -0.043400
     62 C20         6.3650   -3.6950    0.8380 c         1 MOL      0.444289
     63 O10         6.5770   -4.8960    1.1030 o         1 MOL     -0.542570
     64 C21         5.1730   -3.0230    2.8070 c3        1 MOL     -0.346407
     65 C22         3.7480   -2.6520    2.3260 c         1 MOL      0.856483
     66 O11         2.8520   -2.4850    3.1770 o         1 MOL     -0.791757
     67 O12         3.4200   -2.6100    1.1250 o         1 MOL     -0.791757
     68 H28         5.4370   -0.7870    1.6230 hn        1 MOL      0.263049
     69 H29         7.3150   -2.8260    2.4940 h1        1 MOL      0.124139
     70 H30         5.3130   -2.5020    3.7610 hc        1 MOL      0.104444
     71 H31         5.2350   -4.1080    2.8560 hc        1 MOL      0.104444
     72 N7          6.1550   -3.2910   -0.4250 n         1 MOL     -0.235611
     73 C23         5.9720   -4.1120   -1.6540 c3        1 MOL     -0.048326
     74 C24         4.5890   -4.7580   -1.8400 c         1 MOL      0.582693
     75 O13         4.5100   -5.7270   -2.5570 o         1 MOL     -0.574017
     76 H32         6.1980   -2.3000   -0.6360 hn        1 MOL      0.267914
     77 H33         6.5870   -5.0070   -1.7210 h1        1 MOL      0.052488
     78 H34         6.2030   -3.5420   -2.5520 h1        1 MOL      0.052488
     79 N8          3.4880   -4.1210   -1.3630 n         1 MOL     -0.285948
     80 C25         2.1360   -4.5880   -1.4250 c3        1 MOL     -0.075539
     81 C26         1.1060   -3.4400   -1.3920 c         1 MOL      0.610044
     82 O14         1.4120   -2.4030   -0.8120 o         1 MOL     -0.635710
     83 C27         1.8650   -5.5430   -0.2590 c3        1 MOL      0.519964
     84 C28         2.4720   -6.9210   -0.4510 c3        1 MOL     -0.377528
     85 O15         2.2990   -5.1220    1.0280 oh        1 MOL     -0.670816
     86 H35         3.6200   -3.2200   -0.9250 hn        1 MOL      0.140773
     87 H36         1.9830   -5.1670   -2.3330 h1        1 MOL      0.051661
     88 H37         0.7960   -5.7220   -0.1280 h1        1 MOL     -0.078354
     89 H38         2.3650   -4.1710    0.9360 ho        1 MOL      0.536989
     90 H39         1.9140   -7.6400    0.1590 hc        1 MOL      0.085157
     91 H40         2.2760   -7.1910   -1.4900 hc        1 MOL      0.085157
     92 H41         3.5280   -6.8830   -0.2190 hc        1 MOL      0.085157
     93 N9         -0.1100   -3.6880   -1.8290 n         1 MOL     -0.611521
     94 C29        -1.1740   -2.6620   -1.9270 c3        1 MOL      0.106174
     95 C30        -2.3710   -3.1600   -1.1830 c         1 MOL      0.484536
     96 O16        -2.8110   -4.2350   -1.4780 o         1 MOL     -0.556836
     97 C31        -1.5030   -2.3690   -3.4070 c3        1 MOL      0.108301
     98 C32        -0.2760   -1.8630   -4.1730 c3        1 MOL      0.065192
     99 C33        -2.5460   -1.2510   -3.5090 c3        1 MOL     -0.262681
    100 C34        -0.5300   -1.9570   -5.7180 c3        1 MOL     -0.247912
    101 H42        -0.2880   -4.6380   -2.1110 hn        1 MOL      0.300875
    102 H43        -0.7630   -1.7260   -1.5300 h1        1 MOL      0.107168
    103 H44        -1.8690   -3.2740   -3.8840 hc        1 MOL      0.023490
    104 H45         0.5720   -2.5270   -4.0200 hc        1 MOL      0.011224
    105 H46         0.0960   -0.8880   -3.8560 hc        1 MOL      0.011224
    106 H47        -2.9070   -1.1660   -4.5360 hc        1 MOL      0.044589
    107 H48        -3.4240   -1.4570   -2.8950 hc        1 MOL      0.044589
    108 H49        -2.1370   -0.2490   -3.3550 hc        1 MOL      0.044589
    109 H50        -1.1200   -1.1420   -6.1450 hc        1 MOL      0.056636
    110 H51         0.3800   -1.9140   -6.3090 hc        1 MOL      0.056636
    111 H52        -1.0930   -2.8630   -5.9390 hc        1 MOL      0.056636
    112 N10        -2.9050   -2.3930   -0.2090 n         1 MOL      0.036545
    113 C35        -4.1280   -2.7790    0.5500 c3        1 MOL     -0.066242
    114 C36        -5.3230   -2.1880   -0.1590 c         1 MOL      0.229781
    115 O17        -5.2240   -1.4350   -1.1820 o         1 MOL     -0.331802
    116 C37        -3.9850   -2.2130    2.0080 c3        1 MOL      0.134360
    117 C38        -2.9390   -2.8240    2.9230 c3        1 MOL     -0.351013
    118 O18        -3.8180   -0.8820    2.1290 oh        1 MOL     -0.327976
    119 H53        -2.4550   -1.5290    0.0310 hn        1 MOL     -0.088444
    120 H54        -4.1820   -3.8710    0.6320 h1        1 MOL      0.095029
    121 H55        -4.9320   -2.4010    2.5210 h1        1 MOL      0.000896
    122 H56        -3.4060   -0.6410    2.9560 ho        1 MOL      0.349922
    123 H57        -1.9530   -2.5020    2.5940 hc        1 MOL      0.102765
    124 H58        -3.0510   -2.5160    3.9640 hc        1 MOL      0.102765
    125 H59        -2.8490   -3.9060    2.8860 hc        1 MOL      0.102765
    126 N11        -6.5100   -2.5550    0.2770 n         1 MOL     -0.074066
    127 C39        -7.7630   -2.0960   -0.3090 c3        1 MOL     -0.328374
    128 C40        -7.9470   -0.5910   -0.0150 c         1 MOL      0.397595
    129 O19        -8.4730    0.1450   -0.8120 o         1 MOL     -0.478133
    130 C41        -9.0260   -2.7790    0.2820 c3        1 MOL      0.404829
    131 C42        -9.1820   -4.1830   -0.3490 c3        1 MOL     -0.321108
    132 O20        -8.9300   -2.8680    1.6660 oh        1 MOL     -0.693192
    133 H60        -6.6390   -3.2670    0.9810 hn        1 MOL      0.230955
    134 H61        -7.7570   -2.4170   -1.3520 h1        1 MOL      0.177265
    135 H62        -9.8890   -2.1990   -0.0510 h1        1 MOL      0.033041
    136 H63        -9.5780   -3.4910    2.0040 ho        1 MOL      0.437012
    137 H64        -8.1950   -4.6260   -0.4650 hc        1 MOL      0.084161
    138 H65        -9.8900   -4.7650    0.2490 hc        1 MOL      0.084161
    139 H66        -9.6330   -3.9500   -1.3140 hc        1 MOL      0.084161
    140 N12        -7.3120   -0.1410    1.0250 n         1 MOL     -0.122698
    141 C43        -7.2310    1.2580    1.4170 c3        1 MOL     -0.135485
    142 C44        -6.3600    2.0590    0.4350 c         1 MOL      0.338012
    143 O21        -6.7840    3.1120    0.0080 o         1 MOL     -0.498825
    144 C45        -6.7710    1.3950    2.9080 c3        1 MOL     -0.095800
    145 C46        -6.3100    2.8630    3.2650 c3        1 MOL      0.103651
    146 C47        -5.6830    3.1250    4.5790 c3        1 MOL     -0.237816
    147 C48        -5.5020    4.6720    4.6180 c3        1 MOL      0.190273
    148 N13        -4.6780    5.0800    5.7780 n4        1 MOL     -0.359336
    149 H67        -6.9060   -0.8340    1.6450 hn        1 MOL      0.199276
    150 H68        -8.2450    1.6510    1.3800 h1        1 MOL      0.128520
    151 H69        -5.8790    0.7630    2.9380 hc        1 MOL      0.044247
    152 H70        -7.4920    0.9510    3.5910 hc        1 MOL      0.044247
    153 H71        -7.1220    3.5650    3.0680 hc        1 MOL      0.022846
    154 H72        -5.5060    3.1500    2.5970 hc        1 MOL      0.022846
    155 H73        -4.7440    2.5710    4.5950 hc        1 MOL      0.072297
    156 H74        -6.4040    2.7160    5.2860 hc        1 MOL      0.072297
    157 H75        -6.4670    5.1660    4.6950 hx        1 MOL      0.052679
    158 H76        -5.0930    4.9670    3.6500 hx        1 MOL      0.052679
    159 H77        -4.6730    6.0790    5.9250 hn        1 MOL      0.318803
    160 H78        -5.1500    4.6290    6.5600 hn        1 MOL      0.318803
    161 H79        -3.7390    4.7260    5.7170 hn        1 MOL      0.318803
    162 N14        -5.2390    1.4280   -0.0070 n         1 MOL      0.095940
    163 C49        -4.3040    2.0700   -0.9030 c3        1 MOL     -0.036606
    164 C50        -4.7400    1.9820   -2.3900 c         1 MOL      0.408707
    165 O22        -4.5650    3.0650   -2.9900 o         1 MOL     -0.559288
    166 C51        -2.9700    1.3590   -0.7870 c3        1 MOL      0.025045
    167 C52        -2.1180    1.6290    0.4630 c3        1 MOL     -0.222819
    168 C53        -0.8770    0.7590    0.5120 c         1 MOL      0.802251
    169 O23         0.2580    1.3160    0.6610 o         1 MOL     -0.749626
    170 O24        -0.9900   -0.4810    0.5780 o         1 MOL     -0.749626
    171 H80        -5.0210    0.5790    0.4950 hn        1 MOL     -0.110947
    172 H81        -4.2410    3.1190   -0.6050 h1        1 MOL      0.051714
    173 H82        -2.3710    1.4660   -1.6960 hc        1 MOL      0.060578
    174 H83        -3.1790    0.3080   -0.6340 hc        1 MOL      0.060578
    175 H84        -2.6960    1.6760    1.3920 hc        1 MOL      0.049901
    176 H85        -1.6910    2.6240    0.4280 hc        1 MOL      0.049901
    177 N15        -5.3650    0.9470   -2.9350 n         1 MOL     -0.043877
    178 C54        -6.0960    0.8400   -4.2030 c3        1 MOL     -0.259598
    179 H86        -5.3980    0.9410   -5.0340 h1        1 MOL      0.102406
    180 H87        -6.5870   -0.1310   -4.2590 h1        1 MOL      0.102406
    181 H88        -6.8440    1.6310   -4.2600 h1        1 MOL      0.102406
    182 H89        -5.3550    0.1190   -2.3630 hn        1 MOL      0.125881
    183 Ca1         1.5330   -0.8460    1.3590 Ca        1 MOL      1.733733
    184 O25         0.2920   -0.5880    3.7910 oh        1 MOL     -0.839131
    185 H90         0.9500   -0.0300    4.2170 ho        1 MOL      0.396126
    186 H91         0.4470   -1.4600    4.1660 ho        1 MOL      0.396126
    187 O26         0.3390   -3.0850    1.7300 oh        1 MOL     -0.839131
    188 H92         0.4500   -3.4310    2.6160 ho        1 MOL      0.396126
    189 H93        -0.5810   -3.2590    1.5160 ho        1 MOL      0.396126
@<TRIPOS>BOND
     1    1    2 1   
     2    1    4 1   
     3    1    5 1   
     4    1    6 1   
     5    2    3 2   
     6    2    7 1   
     7    7    8 1   
     8    7   15 1   
     9    8    9 1   
    10    8   11 1   
    11    8   16 1   
    12    9   10 2   
    13    9   19 1   
    14   11   12 1   
    15   11   17 1   
    16   11   18 1   
    17   12   13 1   
    18   12   14 1   
    19   19   20 1   
    20   19   28 1   
    21   20   21 1   
    22   20   23 1   
    23   20   29 1   
    24   21   22 2   
    25   21   41 1   
    26   23   24 1   
    27   23   30 1   
    28   23   31 1   
    29   24   25 1   
    30   24   32 1   
    31   24   33 1   
    32   25   26 1   
    33   25   34 1   
    34   25   35 1   
    35   26   27 1   
    36   26   36 1   
    37   26   37 1   
    38   27   38 1   
    39   27   39 1   
    40   27   40 1   
    41   41   42 1   
    42   41   49 1   
    43   42   43 1   
    44   42   45 1   
    45   42   50 1   
    46   43   44 2   
    47   43   53 1   
    48   45   46 1   
    49   45   51 1   
    50   45   52 1   
    51   46   47 1   
    52   46   48 1   
    53   53   54 1   
    54   53   57 1   
    55   54   55 1   
    56   54   58 1   
    57   54   59 1   
    58   55   56 2   
    59   55   60 1   
    60   60   61 1   
    61   60   68 1   
    62   61   62 1   
    63   61   64 1   
    64   61   69 1   
    65   62   63 2   
    66   62   72 1   
    67   64   65 1   
    68   64   70 1   
    69   64   71 1   
    70   65   66 1   
    71   65   67 1   
    72   72   73 1   
    73   72   76 1   
    74   73   74 1   
    75   73   77 1   
    76   73   78 1   
    77   74   75 2   
    78   74   79 1   
    79   79   80 1   
    80   79   86 1   
    81   80   81 1   
    82   80   83 1   
    83   80   87 1   
    84   81   82 2   
    85   81   93 1   
    86   83   84 1   
    87   83   85 1   
    88   83   88 1   
    89   84   90 1   
    90   84   91 1   
    91   84   92 1   
    92   85   89 1   
    93   93   94 1   
    94   93  101 1   
    95   94   95 1   
    96   94   97 1   
    97   94  102 1   
    98   95   96 2   
    99   95  112 1   
   100   97   98 1   
   101   97   99 1   
   102   97  103 1   
   103   98  100 1   
   104   98  104 1   
   105   98  105 1   
   106   99  106 1   
   107   99  107 1   
   108   99  108 1   
   109  100  109 1   
   110  100  110 1   
   111  100  111 1   
   112  112  113 1   
   113  112  119 1   
   114  113  114 1   
   115  113  116 1   
   116  113  120 1   
   117  114  115 2   
   118  114  126 1   
   119  116  117 1   
   120  116  118 1   
   121  116  121 1   
   122  117  123 1   
   123  117  124 1   
   124  117  125 1   
   125  118  122 1   
   126  126  127 1   
   127  126  133 1   
   128  127  128 1   
   129  127  130 1   
   130  127  134 1   
   131  128  129 2   
   132  128  140 1   
   133  130  131 1   
   134  130  132 1   
   135  130  135 1   
   136  131  137 1   
   137  131  138 1   
   138  131  139 1   
   139  132  136 1   
   140  140  141 1   
   141  140  149 1   
   142  141  142 1   
   143  141  144 1   
   144  141  150 1   
   145  142  143 2   
   146  142  162 1   
   147  144  145 1   
   148  144  151 1   
   149  144  152 1   
   150  145  146 1   
   151  145  153 1   
   152  145  154 1   
   153  146  147 1   
   154  146  155 1   
   155  146  156 1   
   156  147  148 1   
   157  147  157 1   
   158  147  158 1   
   159  148  159 1   
   160  148  160 1   
   161  148  161 1   
   162  162  163 1   
   163  162  171 1   
   164  163  164 1   
   165  163  166 1   
   166  163  172 1   
   167  164  165 2   
   168  164  177 1   
   169  166  167 1   
   170  166  173 1   
   171  166  174 1   
   172  167  168 1   
   173  167  175 1   
   174  167  176 1   
   175  168  169 1   
   176  168  170 1   
   177  177  178 1   
   178  177  182 1   
   179  178  179 1   
   180  178  180 1   
   181  178  181 1   
   182  184  185 1   
   183  184  186 1   
   184  187  188 1   
   185  187  189 1   
@<TRIPOS>SUBSTRUCTURE
     1 MOL         1 TEMP              0 ****  ****    0 ROOT
