@<TRIPOS>MOLECULE
MOL
  179   176     1     0     0
SMALL
resp


@<TRIPOS>ATOM
      1 C1          0.3740    4.7520    4.9160 c3        1 MOL     -0.318498
      2 C2          0.0750    3.8530    3.7110 c         1 MOL      0.585016
      3 O1          0.9430    3.5110    2.9440 o         1 MOL     -0.525852
      4 H1          0.9240    4.1820    5.6660 hc        1 MOL      0.077999
      5 H2          0.9740    5.6030    4.5950 hc        1 MOL      0.077999
      6 H3         -0.5620    5.1090    5.3460 hc        1 MOL      0.077999
      7 N1         -1.1730    3.4030    3.5560 n         1 MOL     -0.552749
      8 C3         -1.6250    2.8280    2.3060 c3        1 MOL     -0.008522
      9 C4         -2.2950    4.0340    1.5630 c         1 MOL      0.538266
     10 O2         -3.4370    4.3940    1.8010 o         1 MOL     -0.513394
     11 C5         -2.4850    1.5910    2.5780 c3        1 MOL     -0.114975
     12 C6         -3.0910    0.9610    1.3380 c         1 MOL      0.990512
     13 O3         -2.5710    1.1840    0.2150 o         1 MOL     -0.837292
     14 O4         -4.0810    0.1980    1.4640 o         1 MOL     -0.837292
     15 H4         -1.7580    3.4810    4.3770 hn        1 MOL      0.355495
     16 H5         -0.7900    2.5900    1.6460 h1        1 MOL      0.086836
     17 H6         -3.2770    1.9600    3.2280 hc        1 MOL      0.022490
     18 H7         -1.9530    0.7980    3.1040 hc        1 MOL      0.022490
     19 N2         -1.5670    4.6290    0.6380 n         1 MOL     -0.489160
     20 C7         -1.9400    5.9850    0.0330 c3        1 MOL      0.005161
     21 C8         -2.8140    5.8280   -1.2430 c         1 MOL      0.366217
     22 O5         -3.8090    6.5990   -1.5210 o         1 MOL     -0.519989
     23 C9         -0.6940    6.7530   -0.2480 c3        1 MOL     -0.209729
     24 C10        -0.0830    7.1760    1.1260 c3        1 MOL     -0.009656
     25 C11         1.0790    8.1720    0.9900 c3        1 MOL      0.034159
     26 C12         1.4230    8.4300    2.4720 c3        1 MOL     -0.078475
     27 N3          2.2420    9.6600    2.4890 n4        1 MOL     -0.196780
     28 H8         -0.6000    4.3980    0.4430 hn        1 MOL      0.379092
     29 H9         -2.5300    6.5600    0.7440 h1        1 MOL      0.110407
     30 H10        -0.9750    7.7010   -0.6930 hc        1 MOL      0.099538
     31 H11         0.0410    6.2950   -0.9040 hc        1 MOL      0.099538
     32 H12         0.4010    6.2740    1.4990 hc        1 MOL      0.038290
     33 H13        -0.8350    7.5980    1.8000 hc        1 MOL      0.038290
     34 H14         0.7280    9.0470    0.4430 hc        1 MOL      0.030090
     35 H15         1.8740    7.6660    0.4350 hc        1 MOL      0.030090
     36 H16         1.9290    7.5490    2.8770 hx        1 MOL      0.109062
     37 H17         0.4950    8.6830    2.9820 hx        1 MOL      0.109062
     38 H18         3.0900    9.5060    1.9730 hn        1 MOL      0.286584
     39 H19         1.8630   10.5910    2.3400 hn        1 MOL      0.286584
     40 H20         2.5590    9.6260    3.4520 hn        1 MOL      0.286584
     41 N4         -2.5480    4.7780   -2.0130 n         1 MOL     -0.248495
     42 C13        -3.5710    4.3750   -3.0530 c3        1 MOL     -0.069324
     43 C14        -4.8570    3.7410   -2.4670 c         1 MOL      0.483168
     44 O6         -5.9100    3.8600   -3.1340 o         1 MOL     -0.515958
     45 C15        -2.8080    3.4400   -4.0200 c3        1 MOL     -0.190047
     46 C16        -2.2310    2.2770   -3.2070 c         1 MOL      0.785649
     47 O7         -1.0900    2.2560   -2.7130 o         1 MOL     -0.777939
     48 O8         -2.8630    1.2120   -3.1140 o         1 MOL     -0.777939
     49 H21        -1.9010    4.0730   -1.6960 hn        1 MOL      0.178659
     50 H22        -3.7950    5.2760   -3.6220 h1        1 MOL      0.129466
     51 H23        -1.9950    4.0010   -4.4710 hc        1 MOL      0.065600
     52 H24        -3.4910    3.1030   -4.8020 hc        1 MOL      0.065600
     53 N5         -4.8160    3.2100   -1.2180 n         1 MOL     -0.039463
     54 C17        -6.0110    2.5920   -0.5930 c3        1 MOL     -0.241821
     55 C18        -6.5630    1.2750   -1.1470 c         1 MOL      0.667887
     56 O9         -7.5780    1.2320   -1.9090 o         1 MOL     -0.575750
     57 H25        -3.9580    3.1560   -0.6870 hn        1 MOL      0.152646
     58 H26        -6.8240    3.3070   -0.7160 h1        1 MOL      0.087472
     59 H27        -5.9620    2.3990    0.4690 h1        1 MOL      0.087472
     60 N6         -6.0020    0.2000   -0.7180 n         1 MOL     -0.439215
     61 C19        -6.3000   -1.1830   -1.1020 c3        1 MOL     -0.032001
     62 C20        -6.2930   -2.3030    0.0310 c         1 MOL      0.346018
     63 O10        -6.6510   -3.4860   -0.1810 o         1 MOL     -0.480363
     64 C21        -5.4110   -1.6040   -2.2900 c3        1 MOL     -0.228161
     65 C22        -3.9650   -1.8910   -2.0920 c         1 MOL      0.469161
     66 N7         -3.3460   -2.4910   -3.0620 n         1 MOL     -0.711339
     67 O11        -3.4290   -1.5970   -1.0800 o         1 MOL     -0.377568
     68 H28        -5.2420    0.2890   -0.0550 hn        1 MOL      0.229347
     69 H29        -7.2910   -1.2280   -1.5360 h1        1 MOL      0.124661
     70 H30        -5.7120   -0.8350   -3.0070 hc        1 MOL      0.105879
     71 H31        -5.7870   -2.5150   -2.7490 hc        1 MOL      0.105879
     72 H32        -3.8710   -2.6570   -3.9150 hn        1 MOL      0.354302
     73 H33        -2.4200   -2.8570   -2.9150 hn        1 MOL      0.354302
     74 N8         -5.8380   -1.9390    1.2230 n         1 MOL     -0.223479
     75 C23        -5.5760   -2.7880    2.3750 c3        1 MOL     -0.257273
     76 C24        -4.2160   -3.4520    2.3940 c         1 MOL      0.756252
     77 O12        -3.9800   -4.2170    3.3060 o         1 MOL     -0.620234
     78 H34        -5.4060   -1.0300    1.1690 hn        1 MOL      0.291413
     79 H35        -6.2040   -3.6790    2.4910 h1        1 MOL      0.122748
     80 H36        -5.7120   -2.2120    3.2910 h1        1 MOL      0.122748
     81 N9         -3.2840   -3.0550    1.5560 n         1 MOL     -0.590022
     82 C25        -1.9240   -3.6540    1.5210 c3        1 MOL      0.234850
     83 C26        -0.8780   -2.5620    1.3000 c         1 MOL      0.396569
     84 O13        -1.0990   -1.5370    0.5810 o         1 MOL     -0.633937
     85 C27        -1.7960   -4.8260    0.5010 c3        1 MOL     -0.146111
     86 C28        -2.8950   -5.8920    0.6290 ca        1 MOL      0.041219
     87 C29        -3.9790   -5.8630   -0.2760 ca        1 MOL     -0.149512
     88 C30        -2.8900   -6.9200    1.6530 ca        1 MOL     -0.149512
     89 C31        -5.0600   -6.8120   -0.1510 ca        1 MOL     -0.299803
     90 C32        -3.8690   -7.9190    1.7620 ca        1 MOL     -0.299803
     91 C33        -4.9770   -7.8620    0.8300 ca        1 MOL      0.400345
     92 O14        -6.0200   -8.7130    1.0670 oh        1 MOL     -0.537025
     93 H37        -3.5110   -2.4080    0.8200 hn        1 MOL      0.417386
     94 H38        -1.6520   -4.0220    2.5020 h1        1 MOL      0.023853
     95 H39        -0.7940   -5.2340    0.6200 hc        1 MOL      0.038103
     96 H40        -1.8540   -4.3630   -0.4890 hc        1 MOL      0.038103
     97 H41        -4.0600   -5.0190   -0.9440 ha        1 MOL      0.137561
     98 H42        -2.1240   -6.7880    2.4000 ha        1 MOL      0.137561
     99 H43        -5.9660   -6.7900   -0.7400 ha        1 MOL      0.162600
    100 H44        -3.9330   -8.6180    2.5840 ha        1 MOL      0.162600
    101 H45        -6.0810   -9.0510    1.9670 ho        1 MOL      0.386177
    102 N10         0.2880   -2.8220    1.8930 n         1 MOL     -0.215655
    103 C34         1.4930   -2.1640    1.5280 c3        1 MOL     -0.412558
    104 C35         2.5620   -3.1930    1.2280 c         1 MOL      0.544679
    105 O15         2.7550   -4.1400    1.9770 o         1 MOL     -0.524045
    106 C36         1.9640   -1.1300    2.5920 c3        1 MOL      0.074873
    107 C37         2.5140   -1.7640    3.8890 c3        1 MOL     -0.207179
    108 C38         0.8240   -0.1430    3.0830 c3        1 MOL     -0.355594
    109 C39         2.9790   -0.7330    4.9390 c3        1 MOL     -0.206163
    110 H46         0.4190   -3.5350    2.5950 hn        1 MOL      0.283694
    111 H47         1.2670   -1.6550    0.5890 h1        1 MOL      0.183242
    112 H48         2.7570   -0.4740    2.2270 hc        1 MOL      0.065161
    113 H49         3.4280   -2.1900    3.4900 hc        1 MOL      0.110428
    114 H50         1.7840   -2.4510    4.3180 hc        1 MOL      0.110428
    115 H51         0.2200    0.2410    2.2500 hc        1 MOL      0.140189
    116 H52         0.1120   -0.5020    3.8160 hc        1 MOL      0.140189
    117 H53         1.2510    0.8000    3.4200 hc        1 MOL      0.140189
    118 H54         3.5510    0.0410    4.4410 hc        1 MOL      0.059467
    119 H55         2.1270   -0.1640    5.3070 hc        1 MOL      0.059467
    120 H56         3.5200   -1.2520    5.7380 hc        1 MOL      0.059467
    121 N11         3.1990   -2.9160    0.0910 n         1 MOL     -0.313355
    122 C40         4.2840   -3.6820   -0.5040 c3        1 MOL     -0.008536
    123 C41         5.7160   -3.1100   -0.0980 c         1 MOL      0.523900
    124 O16         5.7490   -2.0270    0.5120 o         1 MOL     -0.399751
    125 C42         4.0860   -3.8450   -2.0170 c3        1 MOL     -0.133417
    126 O17         4.7130   -2.9360   -2.8240 oh        1 MOL     -0.554215
    127 H57         2.7680   -2.1350   -0.4030 hn        1 MOL      0.302101
    128 H58         4.3450   -4.6110    0.0560 h1        1 MOL      0.065723
    129 H59         3.0070   -3.8050   -2.1910 h1        1 MOL      0.109301
    130 H60         4.3520   -4.8340   -2.3800 h1        1 MOL      0.109301
    131 H61         4.3000   -2.8720   -3.6890 ho        1 MOL      0.421241
    132 N12         6.8880   -3.7450   -0.2490 n         1 MOL     -0.482442
    133 C43         8.2070   -3.2060    0.0770 c3        1 MOL      0.189274
    134 C44         8.3840   -1.8320   -0.5680 c         1 MOL      0.335558
    135 O18         8.9570   -0.8450   -0.0070 o         1 MOL     -0.501624
    136 C45         9.2980   -4.2040   -0.4120 c3        1 MOL     -0.173335
    137 H62         6.8340   -4.6780   -0.6320 hn        1 MOL      0.292909
    138 H63         8.3370   -3.1660    1.1580 h1        1 MOL      0.068073
    139 H64         9.1040   -4.5290   -1.4280 hc        1 MOL      0.062122
    140 H65        10.2260   -3.6310   -0.4140 hc        1 MOL      0.062122
    141 H66         9.4430   -5.0950    0.2030 hc        1 MOL      0.062122
    142 N13         7.9860   -1.7250   -1.8390 n         1 MOL     -0.253967
    143 C46         8.0790   -0.4980   -2.7480 c3        1 MOL     -0.001004
    144 C47         7.3200    0.6760   -2.1120 c         1 MOL      0.399938
    145 O19         7.6400    1.8200   -2.3320 o         1 MOL     -0.527913
    146 C48         7.6810   -0.8820   -4.1410 c3        1 MOL     -0.249101
    147 H67         7.4200   -2.4910   -2.1700 hn        1 MOL      0.181115
    148 H68         9.1070   -0.1520   -2.8860 h1        1 MOL      0.124464
    149 H69         6.6480   -1.2030   -4.2480 hc        1 MOL      0.078357
    150 H70         7.7650    0.0390   -4.7000 hc        1 MOL      0.078357
    151 H71         8.3470   -1.6200   -4.5860 hc        1 MOL      0.078357
    152 N14         6.2560    0.4790   -1.3740 n         1 MOL     -0.048460
    153 C49         5.4400    1.4940   -0.6810 c3        1 MOL     -0.135999
    154 C50         6.1230    1.8430    0.6810 c         1 MOL      0.439261
    155 O20         6.3000    3.0670    0.9190 o         1 MOL     -0.554154
    156 C51         3.9740    1.0240   -0.4700 c3        1 MOL      0.108203
    157 C52         3.1490    0.8200   -1.8090 c3        1 MOL     -0.038268
    158 C53         1.7380    0.3580   -1.4740 c         1 MOL      0.852876
    159 O21         1.1370    0.9080   -0.5270 o         1 MOL     -0.790510
    160 O22         1.2410   -0.5630   -2.1290 o         1 MOL     -0.790510
    161 H72         5.9430   -0.4710   -1.2740 hn        1 MOL      0.178933
    162 H73         5.4210    2.3740   -1.3160 h1        1 MOL      0.098895
    163 H74         3.3750    1.7590    0.0540 hc        1 MOL      0.000194
    164 H75         3.9680    0.1740    0.2120 hc        1 MOL      0.000194
    165 H76         3.7300    0.0720   -2.3380 hc        1 MOL     -0.043821
    166 H77         3.1490    1.7660   -2.3720 hc        1 MOL     -0.043821
    167 N15         6.4300    0.8080    1.4240 n         1 MOL     -0.049128
    168 C54         7.0480    0.9190    2.7840 c3        1 MOL     -0.483588
    169 H78         7.3200   -0.0730    3.1410 h1        1 MOL      0.165967
    170 H79         7.9410    1.5420    2.7280 h1        1 MOL      0.165967
    171 H80         6.3330    1.3690    3.4730 h1        1 MOL      0.165967
    172 H81         6.3130   -0.1170    1.0470 hn        1 MOL      0.106986
    173 Ca1        -1.1990   -0.1230   -1.5910 Ca        1 MOL      1.770246
    174 O23        -0.2890   -0.1310   -4.5900 oh        1 MOL     -0.828612
    175 H82        -0.3840   -0.7030   -5.3510 ho        1 MOL      0.400799
    176 H83         0.2050    0.6210   -4.9310 ho        1 MOL      0.400799
    177 O24        -0.3120   -2.6400   -2.3990 oh        1 MOL     -0.828612
    178 H84         0.5910   -2.3350   -2.3110 ho        1 MOL      0.400799
    179 H85        -0.2610   -3.3970   -2.9810 ho        1 MOL      0.400799
@<TRIPOS>BOND
     1    1    2 1   
     2    1    4 1   
     3    1    5 1   
     4    1    6 1   
     5    2    3 2   
     6    2    7 1   
     7    7    8 1   
     8    7   15 1   
     9    8    9 1   
    10    8   11 1   
    11    8   16 1   
    12    9   10 2   
    13    9   19 1   
    14   11   12 1   
    15   11   17 1   
    16   11   18 1   
    17   12   13 1   
    18   12   14 1   
    19   19   20 1   
    20   19   28 1   
    21   20   21 1   
    22   20   23 1   
    23   20   29 1   
    24   21   22 2   
    25   21   41 1   
    26   23   24 1   
    27   23   30 1   
    28   23   31 1   
    29   24   25 1   
    30   24   32 1   
    31   24   33 1   
    32   25   26 1   
    33   25   34 1   
    34   25   35 1   
    35   26   27 1   
    36   26   36 1   
    37   26   37 1   
    38   27   38 1   
    39   27   39 1   
    40   27   40 1   
    41   41   42 1   
    42   41   49 1   
    43   42   43 1   
    44   42   45 1   
    45   42   50 1   
    46   43   44 2   
    47   43   53 1   
    48   45   46 1   
    49   45   51 1   
    50   45   52 1   
    51   46   47 1   
    52   46   48 1   
    53   53   54 1   
    54   53   57 1   
    55   54   55 1   
    56   54   58 1   
    57   54   59 1   
    58   55   56 2   
    59   55   60 1   
    60   60   61 1   
    61   60   68 1   
    62   61   62 1   
    63   61   64 1   
    64   61   69 1   
    65   62   63 2   
    66   62   74 1   
    67   64   65 1   
    68   64   70 1   
    69   64   71 1   
    70   65   66 1   
    71   65   67 2   
    72   66   72 1   
    73   66   73 1   
    74   74   75 1   
    75   74   78 1   
    76   75   76 1   
    77   75   79 1   
    78   75   80 1   
    79   76   77 2   
    80   76   81 1   
    81   81   82 1   
    82   81   93 1   
    83   82   83 1   
    84   82   85 1   
    85   82   94 1   
    86   83   84 2   
    87   83  102 1   
    88   85   86 1   
    89   85   95 1   
    90   85   96 1   
    91   86   87 ar  
    92   86   88 ar  
    93   87   89 ar  
    94   87   97 1   
    95   88   90 ar  
    96   88   98 1   
    97   89   91 ar  
    98   89   99 1   
    99   90   91 ar  
   100   90  100 1   
   101   91   92 1   
   102   92  101 1   
   103  102  103 1   
   104  102  110 1   
   105  103  104 1   
   106  103  106 1   
   107  103  111 1   
   108  104  105 2   
   109  104  121 1   
   110  106  107 1   
   111  106  108 1   
   112  106  112 1   
   113  107  109 1   
   114  107  113 1   
   115  107  114 1   
   116  108  115 1   
   117  108  116 1   
   118  108  117 1   
   119  109  118 1   
   120  109  119 1   
   121  109  120 1   
   122  121  122 1   
   123  121  127 1   
   124  122  123 1   
   125  122  125 1   
   126  122  128 1   
   127  123  124 2   
   128  123  132 1   
   129  125  126 1   
   130  125  129 1   
   131  125  130 1   
   132  126  131 1   
   133  132  133 1   
   134  132  137 1   
   135  133  134 1   
   136  133  136 1   
   137  133  138 1   
   138  134  135 2   
   139  134  142 1   
   140  136  139 1   
   141  136  140 1   
   142  136  141 1   
   143  142  143 1   
   144  142  147 1   
   145  143  144 1   
   146  143  146 1   
   147  143  148 1   
   148  144  145 2   
   149  144  152 1   
   150  146  149 1   
   151  146  150 1   
   152  146  151 1   
   153  152  153 1   
   154  152  161 1   
   155  153  154 1   
   156  153  156 1   
   157  153  162 1   
   158  154  155 2   
   159  154  167 1   
   160  156  157 1   
   161  156  163 1   
   162  156  164 1   
   163  157  158 1   
   164  157  165 1   
   165  157  166 1   
   166  158  159 1   
   167  158  160 1   
   168  167  168 1   
   169  167  172 1   
   170  168  169 1   
   171  168  170 1   
   172  168  171 1   
   173  174  175 1   
   174  174  176 1   
   175  177  178 1   
   176  177  179 1   
@<TRIPOS>SUBSTRUCTURE
     1 MOL         1 TEMP              0 ****  ****    0 ROOT
