@<TRIPOS>MOLECULE
MOL
  189   185     1     0     0
SMALL
resp


@<TRIPOS>ATOM
      1 C1          3.7540   -5.5840    5.5980 c3        1 MOL     -0.435108
      2 C2          3.2620   -4.7710    4.3550 c         1 MOL      0.714659
      3 O1          2.6200   -3.7360    4.4720 o         1 MOL     -0.583912
      4 H1          2.9800   -5.5790    6.3650 hc        1 MOL      0.100394
      5 H2          3.9630   -6.6120    5.3010 hc        1 MOL      0.100394
      6 H3          4.6610   -5.1290    5.9950 hc        1 MOL      0.100394
      7 N1          3.6310   -5.2370    3.1620 n         1 MOL     -0.629540
      8 C3          3.6290   -4.4000    1.9860 c3        1 MOL      0.340459
      9 C4          3.0980   -5.0770    0.6830 c         1 MOL      0.290156
     10 O2          3.6410   -6.1730    0.3470 o         1 MOL     -0.573217
     11 C5          5.0610   -3.8540    1.7800 c3        1 MOL     -0.166053
     12 C6          5.2450   -3.1180    0.4090 c         1 MOL      0.547374
     13 O3          4.5640   -2.0750    0.1280 o         1 MOL     -0.585305
     14 O4          6.0520   -3.6050   -0.3910 o         1 MOL     -0.585305
     15 H4          4.1740   -6.0780    3.2160 hn        1 MOL      0.314210
     16 H5          2.9360   -3.5660    2.0860 h1        1 MOL     -0.009245
     17 H6          5.8210   -4.5830    2.0390 hc        1 MOL      0.018362
     18 H7          5.2630   -3.0950    2.5290 hc        1 MOL      0.018362
     19 N2          2.1960   -4.4580   -0.0000 n         1 MOL      0.024467
     20 C7          1.5610   -5.0180   -1.1750 c3        1 MOL      0.028670
     21 C8          2.3360   -4.5630   -2.3960 c         1 MOL      0.502206
     22 O5          2.3290   -5.3410   -3.3080 o         1 MOL     -0.608871
     23 C9          0.0990   -4.5300   -1.1900 c3        1 MOL      0.077550
     24 C10        -0.7600   -5.0010    0.0320 c3        1 MOL      0.041354
     25 C11        -0.6530   -4.9410   -2.4810 c3        1 MOL     -0.271583
     26 C12        -0.8240   -6.5350    0.2740 c3        1 MOL     -0.438705
     27 H8          1.7640   -3.6380    0.4150 hn        1 MOL      0.055873
     28 H9          1.5260   -6.1080   -1.1870 h1        1 MOL      0.045667
     29 H10         0.1520   -3.4390   -1.2060 hc        1 MOL      0.020608
     30 H11        -1.7740   -4.5980    0.0290 hc        1 MOL      0.056328
     31 H12        -0.3170   -4.6400    0.9610 hc        1 MOL      0.056328
     32 H13        -0.6510   -6.0280   -2.5810 hc        1 MOL      0.076396
     33 H14        -1.7000   -4.6360   -2.3970 hc        1 MOL      0.076396
     34 H15        -0.1560   -4.4110   -3.2970 hc        1 MOL      0.076396
     35 H16        -1.6400   -6.8090    0.9430 hc        1 MOL      0.096544
     36 H17        -1.3310   -6.9200   -0.6120 hc        1 MOL      0.096544
     37 H18         0.0830   -7.0900    0.4790 hc        1 MOL      0.096544
     38 N3          2.9710   -3.4120   -2.4820 n         1 MOL     -0.124497
     39 C13         3.3230   -2.7760   -3.7700 c3        1 MOL      0.018907
     40 C14         4.7040   -2.0160   -3.7970 c         1 MOL      0.293960
     41 O6          5.1360   -1.6640   -4.9040 o         1 MOL     -0.528475
     42 C15         2.1870   -1.7840   -4.1300 c3        1 MOL     -0.360156
     43 C16         1.6010   -0.9430   -2.9160 c         1 MOL      0.750892
     44 O7          2.2590   -0.8330   -1.8750 o         1 MOL     -0.677983
     45 O8          0.5540   -0.2740   -3.0140 o         1 MOL     -0.677983
     46 H19         2.9280   -2.7760   -1.7030 hn        1 MOL      0.053503
     47 H20         3.3420   -3.5200   -4.5650 h1        1 MOL      0.108602
     48 H21         1.3200   -2.3550   -4.4540 hc        1 MOL      0.113051
     49 H22         2.5080   -0.9620   -4.7760 hc        1 MOL      0.113051
     50 N4          5.3340   -1.8450   -2.6300 n         1 MOL      0.035230
     51 C17         6.6830   -1.2030   -2.4650 c3        1 MOL     -0.099143
     52 C18         6.6650    0.3140   -2.7820 c         1 MOL      0.354192
     53 O9          7.6370    0.8230   -3.3350 o         1 MOL     -0.550431
     54 H23         4.8650   -2.2320   -1.8190 hn        1 MOL     -0.033553
     55 H24         7.2800   -1.6470   -3.2670 h1        1 MOL      0.077368
     56 H25         7.1470   -1.5130   -1.5340 h1        1 MOL      0.077368
     57 N5          5.5380    1.0260   -2.5790 n         1 MOL     -0.059849
     58 C19         5.4370    2.4560   -2.8160 c3        1 MOL     -0.109657
     59 C20         5.8660    3.4100   -1.6560 c         1 MOL      0.435442
     60 O10         6.0040    4.6560   -1.8700 o         1 MOL     -0.558820
     61 C21         3.9360    2.7290   -3.2010 c3        1 MOL     -0.317309
     62 C22         2.9390    2.5330   -2.0000 c         1 MOL      0.767082
     63 O11         3.3490    2.0250   -0.9020 o         1 MOL     -0.677223
     64 O12         1.7460    2.8650   -2.1660 o         1 MOL     -0.677223
     65 H26         4.6810    0.6000   -2.2460 hn        1 MOL      0.181095
     66 H27         6.0570    2.7380   -3.6680 h1        1 MOL      0.121901
     67 H28         3.6080    2.1090   -4.0330 hc        1 MOL      0.099178
     68 H29         3.8340    3.7740   -3.5010 hc        1 MOL      0.099178
     69 N6          6.0870    2.8440   -0.4760 n         1 MOL     -0.199240
     70 C23         6.5320    3.5800    0.7590 c3        1 MOL     -0.300357
     71 C24         5.3540    4.4270    1.3300 c         1 MOL      0.619478
     72 O13         5.6130    5.2400    2.2320 o         1 MOL     -0.610434
     73 H30         5.6750    1.9200   -0.3940 hn        1 MOL      0.145605
     74 H31         7.4460    4.1290    0.5360 h1        1 MOL      0.136007
     75 H32         6.7120    2.8310    1.5360 h1        1 MOL      0.136007
     76 N7          4.0880    4.1640    0.9480 n         1 MOL     -0.314217
     77 C25         2.9000    4.6480    1.6650 c3        1 MOL      0.089581
     78 C26         2.1030    3.4830    2.1220 c         1 MOL      0.327425
     79 O14         2.3800    2.3240    1.7350 o         1 MOL     -0.450970
     80 C27         2.0960    5.5190    0.6900 c3        1 MOL     -0.077640
     81 C28         2.8840    6.7770    0.4310 c3        1 MOL     -0.197334
     82 C29         2.0850    7.8370   -0.2630 c         1 MOL      0.663489
     83 N8          1.6420    7.7170   -1.4330 n         1 MOL     -0.749899
     84 O15         1.8510    8.8800    0.3050 o         1 MOL     -0.628573
     85 H33         3.9560    3.4450    0.2410 hn        1 MOL      0.229785
     86 H34         3.2360    5.1890    2.5470 h1        1 MOL      0.070807
     87 H35         1.1000    5.7330    1.0710 hc        1 MOL      0.073593
     88 H36         1.9420    4.9830   -0.2460 hc        1 MOL      0.073593
     89 H37         3.8740    6.6300   -0.0050 hc        1 MOL      0.067635
     90 H38         3.1200    7.1570    1.4210 hc        1 MOL      0.067635
     91 H39         1.7590    6.8750   -1.9810 hn        1 MOL      0.351404
     92 H40         1.3130    8.5910   -1.8250 hn        1 MOL      0.351404
     93 N9          1.0040    3.7120    2.9140 n         1 MOL     -0.358461
     94 C30        -0.1190    2.7770    2.7920 c3        1 MOL      0.031264
     95 C31        -1.2410    3.3580    2.0430 c         1 MOL      0.360395
     96 O16        -1.4560    4.5720    2.0040 o         1 MOL     -0.547561
     97 C32        -0.4400    2.4250    4.2290 c3        1 MOL      0.438399
     98 C33        -1.4280    1.2710    4.2730 c3        1 MOL     -0.408250
     99 C34         0.7280    2.0300    5.1180 c3        1 MOL     -0.408250
    100 H41         0.8190    4.6640    3.1870 hn        1 MOL      0.235726
    101 H42         0.2500    1.8280    2.3890 h1        1 MOL      0.135701
    102 H43        -0.9170    3.2320    4.7650 hc        1 MOL     -0.085691
    103 H44        -0.9560    0.4090    3.7970 hc        1 MOL      0.086389
    104 H45        -1.6430    1.0100    5.3080 hc        1 MOL      0.086389
    105 H46        -2.3930    1.5700    3.8700 hc        1 MOL      0.086389
    106 H47         1.1900    1.2590    4.4900 hc        1 MOL      0.086389
    107 H48         1.3350    2.9180    5.2610 hc        1 MOL      0.086389
    108 H49         0.4020    1.6400    6.0840 hc        1 MOL      0.086389
    109 N10        -2.0410    2.4840    1.3880 n         1 MOL     -0.178651
    110 C35        -3.1630    2.8210    0.5960 c3        1 MOL      0.310937
    111 C36        -4.4310    2.1100    1.2550 c         1 MOL      0.171686
    112 O17        -4.3100    1.1270    2.0780 o         1 MOL     -0.345000
    113 C37        -3.0080    2.2690   -0.8530 c3        1 MOL     -0.664564
    114 C38        -4.1090    2.6350   -1.7900 c         1 MOL      0.731413
    115 N11        -4.4610    3.8670   -1.8980 n         1 MOL     -0.781117
    116 O18        -4.7890    1.8310   -2.3970 o         1 MOL     -0.465508
    117 H50        -1.7560    1.5220    1.4120 hn        1 MOL      0.079233
    118 H51        -3.3990    3.8850    0.6430 h1        1 MOL      0.016363
    119 H52        -2.8900    1.1850   -0.8850 hc        1 MOL      0.225566
    120 H53        -2.1080    2.6190   -1.3560 hc        1 MOL      0.225566
    121 H54        -4.0090    4.5620   -1.3150 hn        1 MOL      0.349229
    122 H55        -5.2040    4.0800   -2.5450 hn        1 MOL      0.349229
    123 N12        -5.6270    2.4430    0.7810 n         1 MOL     -0.233512
    124 C39        -6.9640    1.7910    1.1380 c3        1 MOL      0.011076
    125 C40        -7.1080    0.2750    0.9440 c         1 MOL      0.580153
    126 O19        -7.5770   -0.4040    1.8600 o         1 MOL     -0.571570
    127 C41        -8.1640    2.4620    0.4670 c3        1 MOL     -0.069797
    128 C42        -8.6130    1.9030   -0.9140 ca        1 MOL     -0.107484
    129 C43        -9.5670    0.8960   -0.9290 ca        1 MOL     -0.068932
    130 C44        -7.9050    2.3250   -2.0800 ca        1 MOL     -0.068932
    131 C45        -9.8230    0.2710   -2.1090 ca        1 MOL     -0.340844
    132 C46        -8.0860    1.6530   -3.2980 ca        1 MOL     -0.340844
    133 C47        -8.9990    0.6350   -3.2740 ca        1 MOL      0.380477
    134 O20        -9.2300   -0.0360   -4.4980 oh        1 MOL     -0.482006
    135 H56        -5.6740    3.3410    0.3150 hn        1 MOL      0.205789
    136 H57        -7.1190    1.9150    2.2100 h1        1 MOL      0.060094
    137 H58        -7.9460    3.5140    0.2840 hc        1 MOL      0.033083
    138 H59        -8.9180    2.4290    1.2520 hc        1 MOL      0.033083
    139 H60       -10.1760    0.7250   -0.0540 ha        1 MOL      0.112114
    140 H61        -7.1630    3.1050   -1.9920 ha        1 MOL      0.112114
    141 H62       -10.5290   -0.5450   -2.1740 ha        1 MOL      0.183900
    142 H63        -7.5270    1.9870   -4.1630 ha        1 MOL      0.183900
    143 H64        -9.8610   -0.7560   -4.4720 ho        1 MOL      0.344072
    144 N13        -6.4070   -0.2470   -0.0950 n         1 MOL     -0.527993
    145 C48        -6.3190   -1.7060   -0.3010 c3        1 MOL      0.534502
    146 C49        -5.2920   -2.3000    0.6630 c         1 MOL      0.202739
    147 O21        -5.4580   -3.4650    1.1390 o         1 MOL     -0.522134
    148 C50        -6.1850   -2.0750   -1.8050 c3        1 MOL     -0.557806
    149 C51        -4.7350   -2.2690   -2.2060 c3        1 MOL     -0.065343
    150 C52        -4.5970   -2.3170   -3.7560 c         1 MOL      0.705774
    151 O22        -5.2580   -3.0710   -4.5050 o         1 MOL     -0.730391
    152 O23        -3.7460   -1.5410   -4.2460 o         1 MOL     -0.730391
    153 H65        -6.0690    0.4360   -0.7470 hn        1 MOL      0.370888
    154 H66        -7.2990   -2.0160    0.0440 h1        1 MOL     -0.029372
    155 H67        -6.5330   -1.2330   -2.4110 hc        1 MOL      0.148195
    156 H68        -6.7330   -3.0030   -2.0040 hc        1 MOL      0.148195
    157 H69        -4.3010   -3.1980   -1.8410 hc        1 MOL      0.014479
    158 H70        -4.2000   -1.3970   -1.8170 hc        1 MOL      0.014479
    159 N14        -4.2210   -1.6340    1.0960 n         1 MOL     -0.069800
    160 C53        -3.1760   -2.2260    2.0340 c3        1 MOL     -0.205132
    161 C54        -3.6730   -2.2450    3.5720 c         1 MOL      0.481876
    162 O24        -3.3970   -3.1640    4.3230 o         1 MOL     -0.531670
    163 C55        -1.8360   -1.5770    1.7010 c3        1 MOL     -0.224844
    164 C56        -0.7350   -2.1860    2.5950 c3        1 MOL     -0.136283
    165 C57         0.6230   -1.5660    2.1360 c         1 MOL      1.053701
    166 O25         1.0170   -0.5390    2.5620 o         1 MOL     -0.838376
    167 O26         1.2640   -2.0760    1.1940 o         1 MOL     -0.838376
    168 H71        -4.0850   -0.6900    0.7810 hn        1 MOL      0.158986
    169 H72        -3.1180   -3.2900    1.8130 h1        1 MOL      0.166445
    170 H73        -1.9070   -0.5100    1.8960 hc        1 MOL      0.090242
    171 H74        -1.6830   -1.7900    0.6460 hc        1 MOL      0.090242
    172 H75        -0.6620   -3.2640    2.5030 hc        1 MOL      0.029096
    173 H76        -0.9180   -1.9420    3.6430 hc        1 MOL      0.029096
    174 N15        -4.4410   -1.2110    3.9020 n         1 MOL     -0.042037
    175 C58        -5.1110   -1.1150    5.1640 c3        1 MOL     -0.237437
    176 H77        -4.9980   -0.1050    5.5590 h1        1 MOL      0.075346
    177 H78        -6.1700   -1.3360    5.0320 h1        1 MOL      0.075346
    178 H79        -4.6750   -1.8290    5.8630 h1        1 MOL      0.075346
    179 H80        -4.4950   -0.4200    3.2930 hn        1 MOL      0.116360
    180 Ca1         2.6290   -0.0060    0.4800 Ca        1 MOL      1.738297
    181 O27         3.8880   -0.2730    2.8440 oh        1 MOL     -0.865188
    182 H81         3.4100   -0.5170    3.6400 ho        1 MOL      0.410520
    183 H82         4.7600   -0.6510    2.9710 ho        1 MOL      0.410520
    184 O28         5.6120    0.2050    0.4640 oh        1 MOL     -0.865188
    185 H83         6.5170    0.4220    0.6610 ho        1 MOL      0.410520
    186 H84         5.5950   -0.7400    0.3780 ho        1 MOL      0.410520
    187 O29         0.4520    1.0790   -0.6350 oh        1 MOL     -0.865188
    188 H85         0.8240    1.8710   -1.0260 ho        1 MOL      0.410520
    189 H86         0.1020    0.5840   -1.3710 ho        1 MOL      0.410520
@<TRIPOS>BOND
     1    1    2 1   
     2    1    4 1   
     3    1    5 1   
     4    1    6 1   
     5    2    3 2   
     6    2    7 1   
     7    7    8 1   
     8    7   15 1   
     9    8    9 1   
    10    8   11 1   
    11    8   16 1   
    12    9   10 2   
    13    9   19 1   
    14   11   12 1   
    15   11   17 1   
    16   11   18 1   
    17   12   13 1   
    18   12   14 1   
    19   19   20 1   
    20   19   27 1   
    21   20   21 1   
    22   20   23 1   
    23   20   28 1   
    24   21   22 2   
    25   21   38 1   
    26   23   24 1   
    27   23   25 1   
    28   23   29 1   
    29   24   26 1   
    30   24   30 1   
    31   24   31 1   
    32   25   32 1   
    33   25   33 1   
    34   25   34 1   
    35   26   35 1   
    36   26   36 1   
    37   26   37 1   
    38   38   39 1   
    39   38   46 1   
    40   39   40 1   
    41   39   42 1   
    42   39   47 1   
    43   40   41 2   
    44   40   50 1   
    45   42   43 1   
    46   42   48 1   
    47   42   49 1   
    48   43   44 1   
    49   43   45 1   
    50   50   51 1   
    51   50   54 1   
    52   51   52 1   
    53   51   55 1   
    54   51   56 1   
    55   52   53 2   
    56   52   57 1   
    57   57   58 1   
    58   57   65 1   
    59   58   59 1   
    60   58   61 1   
    61   58   66 1   
    62   59   60 2   
    63   59   69 1   
    64   61   62 1   
    65   61   67 1   
    66   61   68 1   
    67   62   63 1   
    68   62   64 1   
    69   69   70 1   
    70   69   73 1   
    71   70   71 1   
    72   70   74 1   
    73   70   75 1   
    74   71   72 2   
    75   71   76 1   
    76   76   77 1   
    77   76   85 1   
    78   77   78 1   
    79   77   80 1   
    80   77   86 1   
    81   78   79 2   
    82   78   93 1   
    83   80   81 1   
    84   80   87 1   
    85   80   88 1   
    86   81   82 1   
    87   81   89 1   
    88   81   90 1   
    89   82   83 1   
    90   82   84 2   
    91   83   91 1   
    92   83   92 1   
    93   93   94 1   
    94   93  100 1   
    95   94   95 1   
    96   94   97 1   
    97   94  101 1   
    98   95   96 2   
    99   95  109 1   
   100   97   98 1   
   101   97   99 1   
   102   97  102 1   
   103   98  103 1   
   104   98  104 1   
   105   98  105 1   
   106   99  106 1   
   107   99  107 1   
   108   99  108 1   
   109  109  110 1   
   110  109  117 1   
   111  110  111 1   
   112  110  113 1   
   113  110  118 1   
   114  111  112 2   
   115  111  123 1   
   116  113  114 1   
   117  113  119 1   
   118  113  120 1   
   119  114  115 1   
   120  114  116 2   
   121  115  121 1   
   122  115  122 1   
   123  123  124 1   
   124  123  135 1   
   125  124  125 1   
   126  124  127 1   
   127  124  136 1   
   128  125  126 2   
   129  125  144 1   
   130  127  128 1   
   131  127  137 1   
   132  127  138 1   
   133  128  129 ar  
   134  128  130 ar  
   135  129  131 ar  
   136  129  139 1   
   137  130  132 ar  
   138  130  140 1   
   139  131  133 ar  
   140  131  141 1   
   141  132  133 ar  
   142  132  142 1   
   143  133  134 1   
   144  134  143 1   
   145  144  145 1   
   146  144  153 1   
   147  145  146 1   
   148  145  148 1   
   149  145  154 1   
   150  146  147 2   
   151  146  159 1   
   152  148  149 1   
   153  148  155 1   
   154  148  156 1   
   155  149  150 1   
   156  149  157 1   
   157  149  158 1   
   158  150  151 1   
   159  150  152 1   
   160  159  160 1   
   161  159  168 1   
   162  160  161 1   
   163  160  163 1   
   164  160  169 1   
   165  161  162 2   
   166  161  174 1   
   167  163  164 1   
   168  163  170 1   
   169  163  171 1   
   170  164  165 1   
   171  164  172 1   
   172  164  173 1   
   173  165  166 1   
   174  165  167 1   
   175  174  175 1   
   176  174  179 1   
   177  175  176 1   
   178  175  177 1   
   179  175  178 1   
   180  181  182 1   
   181  181  183 1   
   182  184  185 1   
   183  184  186 1   
   184  187  188 1   
   185  187  189 1   
@<TRIPOS>SUBSTRUCTURE
     1 MOL         1 TEMP              0 ****  ****    0 ROOT
