@<TRIPOS>MOLECULE
MOL
  189   185     1     0     0
SMALL
resp


@<TRIPOS>ATOM
      1 C1          1.8170   -4.8800    5.7230 c3        1 MOL     -0.277883
      2 C2          2.2850   -4.0340    4.5030 c         1 MOL      0.731481
      3 O1          2.1350   -2.8080    4.5090 o         1 MOL     -0.603213
      4 H1          2.5130   -5.7040    5.8820 hc        1 MOL      0.068283
      5 H2          1.7910   -4.2520    6.6130 hc        1 MOL      0.068283
      6 H3          0.8210   -5.2780    5.5290 hc        1 MOL      0.068283
      7 N1          2.7280   -4.6320    3.3890 n         1 MOL     -0.537589
      8 C3          3.2080   -3.9000    2.2170 c3        1 MOL      0.083305
      9 C4          3.4440   -4.8670    1.0440 c         1 MOL      0.626718
     10 O2          3.9800   -5.9220    1.3610 o         1 MOL     -0.587933
     11 C5          4.4700   -3.1000    2.5520 c3        1 MOL     -0.283254
     12 C6          4.9200   -2.1640    1.4690 c         1 MOL      0.779486
     13 O3          5.9270   -1.4260    1.6580 o         1 MOL     -0.693890
     14 O4          4.1850   -1.9940    0.4170 o         1 MOL     -0.693890
     15 H4          2.8350   -5.6410    3.3230 hn        1 MOL      0.288461
     16 H5          2.3800   -3.2890    1.8590 h1        1 MOL      0.106349
     17 H6          5.2200   -3.8670    2.7620 hc        1 MOL      0.059196
     18 H7          4.3850   -2.6050    3.5170 hc        1 MOL      0.059196
     19 N2          3.1210   -4.5670   -0.2280 n         1 MOL     -0.281815
     20 C7          3.3000   -5.5190   -1.3680 c3        1 MOL     -0.333553
     21 C8          3.9500   -4.7700   -2.5550 c         1 MOL      0.723238
     22 O5          4.1330   -5.4410   -3.5350 o         1 MOL     -0.607210
     23 C9          1.9830   -6.1510   -1.8230 c3        1 MOL      0.222178
     24 C10         0.8930   -5.2030   -2.3190 c3        1 MOL      0.125154
     25 C11         1.4250   -6.9550   -0.6280 c3        1 MOL     -0.254831
     26 C12        -0.1770   -5.7930   -3.2420 c3        1 MOL     -0.430197
     27 H8          2.5970   -3.7150   -0.3740 hn        1 MOL      0.080121
     28 H9          4.0090   -6.2820   -1.0460 h1        1 MOL      0.144874
     29 H10         2.2000   -6.7720   -2.6980 hc        1 MOL     -0.021247
     30 H11         1.3980   -4.4470   -2.9260 hc        1 MOL      0.057629
     31 H12         0.3540   -4.7590   -1.4840 hc        1 MOL      0.057629
     32 H13         0.5060   -7.4610   -0.9050 hc        1 MOL      0.047823
     33 H14         2.1120   -7.7030   -0.2330 hc        1 MOL      0.047823
     34 H15         1.1900   -6.3460    0.2430 hc        1 MOL      0.047823
     35 H16        -0.8440   -6.3920   -2.6250 hc        1 MOL      0.096853
     36 H17        -0.8200   -5.0390   -3.6960 hc        1 MOL      0.096853
     37 H18         0.3980   -6.3970   -3.9480 hc        1 MOL      0.096853
     38 N3          4.3050   -3.5210   -2.4750 n         1 MOL     -0.610468
     39 C13         4.8220   -2.5750   -3.4720 c3        1 MOL      0.105375
     40 C14         5.9720   -1.6200   -3.0290 c         1 MOL      0.493569
     41 O6          6.5290   -1.0710   -3.9680 o         1 MOL     -0.532815
     42 C15         3.6730   -1.8440   -4.2460 c3        1 MOL     -0.332643
     43 C16         2.7600   -0.9900   -3.3240 c         1 MOL      0.767040
     44 O7          3.0150   -0.7920   -2.1050 o         1 MOL     -0.715100
     45 O8          1.7300   -0.4090   -3.7680 o         1 MOL     -0.715100
     46 H19         3.9900   -3.1170   -1.6030 hn        1 MOL      0.385445
     47 H20         5.3730   -3.1760   -4.1980 h1        1 MOL      0.068076
     48 H21         3.1770   -2.5980   -4.8490 hc        1 MOL      0.097937
     49 H22         4.1780   -1.1400   -4.9150 hc        1 MOL      0.097937
     50 N4          6.3490   -1.5300   -1.7710 n         1 MOL     -0.239914
     51 C17         7.5990   -0.9540   -1.3400 c3        1 MOL     -0.269169
     52 C18         7.7090    0.5650   -1.4810 c         1 MOL      0.370914
     53 O9          8.8150    1.0240   -1.8400 o         1 MOL     -0.546146
     54 H23         5.7660   -1.9230   -1.0390 hn        1 MOL      0.170640
     55 H24         8.3960   -1.3170   -1.9820 h1        1 MOL      0.144606
     56 H25         7.7400   -1.1660   -0.2820 h1        1 MOL      0.144606
     57 N5          6.5510    1.3080   -1.5460 n         1 MOL      0.018552
     58 C19         6.3470    2.6230   -1.9340 c3        1 MOL     -0.011409
     59 C20         6.5340    3.6350   -0.7800 c         1 MOL      0.355093
     60 O10         6.8140    4.8110   -1.0510 o         1 MOL     -0.533631
     61 C21         5.0790    3.0030   -2.7000 c3        1 MOL     -0.271806
     62 C22         3.7850    2.6640   -1.9630 c         1 MOL      0.767356
     63 O11         3.7720    2.0870   -0.8710 o         1 MOL     -0.680308
     64 O12         2.7520    3.1780   -2.4750 o         1 MOL     -0.680308
     65 H26         5.7280    0.7220   -1.4620 hn        1 MOL      0.084889
     66 H27         7.1810    2.8550   -2.6070 h1        1 MOL      0.079440
     67 H28         5.0830    2.4660   -3.6520 hc        1 MOL      0.079701
     68 H29         5.1590    4.0800   -2.8470 hc        1 MOL      0.079701
     69 N6          6.3950    3.2080    0.4680 n         1 MOL     -0.249654
     70 C23         6.1790    4.0170    1.7140 c3        1 MOL     -0.185120
     71 C24         4.7840    4.5430    1.9920 c         1 MOL      0.529870
     72 O13         4.5800    5.2520    2.9720 o         1 MOL     -0.600426
     73 H30         6.1700    2.2210    0.5420 hn        1 MOL      0.183288
     74 H31         6.8960    4.8080    1.8930 h1        1 MOL      0.107585
     75 H32         6.3050    3.3000    2.5200 h1        1 MOL      0.107585
     76 N7          3.7720    4.3330    1.1540 n         1 MOL     -0.386620
     77 C25         2.3430    4.6870    1.4000 c3        1 MOL      0.049730
     78 C26         1.4190    3.4700    1.5790 c         1 MOL      0.498027
     79 O14         1.7440    2.3700    1.3370 o         1 MOL     -0.474501
     80 C27         1.8430    5.6480    0.3820 c3        1 MOL     -0.137975
     81 C28         2.8670    6.7800    0.1080 c3        1 MOL     -0.144666
     82 C29         2.3180    7.9590   -0.6710 c         1 MOL      0.649176
     83 N8          3.0990    8.9790   -0.8870 n         1 MOL     -0.774962
     84 O15         1.1480    7.9240   -1.0610 o         1 MOL     -0.582044
     85 H33         3.9360    3.6160    0.4540 hn        1 MOL      0.368178
     86 H34         2.3250    5.2270    2.3540 h1        1 MOL      0.043825
     87 H35         0.9110    6.1190    0.7000 hc        1 MOL      0.084842
     88 H36         1.5700    5.0620   -0.4950 hc        1 MOL      0.084842
     89 H37         3.6050    6.2620   -0.5080 hc        1 MOL      0.077315
     90 H38         3.2560    7.2340    1.0240 hc        1 MOL      0.077315
     91 H39         4.0970    9.0260   -0.7360 hn        1 MOL      0.340474
     92 H40         2.6140    9.7950   -1.2520 hn        1 MOL      0.340474
     93 N9          0.2080    3.7260    2.1050 n         1 MOL     -0.454505
     94 C30        -0.8580    2.7670    2.3800 c3        1 MOL      0.064204
     95 C31        -1.9190    2.8590    1.3140 c         1 MOL      0.521826
     96 O16        -2.5560    3.8620    1.1760 o         1 MOL     -0.589949
     97 C32        -1.4350    2.9750    3.7930 c3        1 MOL      0.279506
     98 C33        -2.5780    1.9840    4.1350 c3        1 MOL     -0.353541
     99 C34        -0.2930    2.7630    4.8920 c3        1 MOL     -0.353541
    100 H41         0.0430    4.6740    2.4190 hn        1 MOL      0.254992
    101 H42        -0.3780    1.7920    2.3080 h1        1 MOL      0.028379
    102 H43        -1.7680    4.0000    3.8960 hc        1 MOL     -0.038673
    103 H44        -2.1030    1.0050    4.0920 hc        1 MOL      0.075011
    104 H45        -2.9570    2.1370    5.1430 hc        1 MOL      0.075011
    105 H46        -3.3680    2.1800    3.4140 hc        1 MOL      0.075011
    106 H47         0.3930    3.6140    4.9160 hc        1 MOL      0.075011
    107 H48        -0.8280    2.7770    5.8410 hc        1 MOL      0.075011
    108 H49         0.2890    1.8620    4.7120 hc        1 MOL      0.075011
    109 N10        -1.9680    1.8040    0.5120 n         1 MOL     -0.259362
    110 C35        -3.0610    1.6230   -0.4650 c3        1 MOL      0.040213
    111 C36        -4.4080    1.2260    0.2460 c         1 MOL      0.270833
    112 O17        -4.3620    0.6710    1.3080 o         1 MOL     -0.247596
    113 C37        -2.7680    0.6290   -1.5180 c3        1 MOL     -0.514531
    114 C38        -3.8430    0.4760   -2.5600 c         1 MOL      0.698118
    115 N11        -4.2650    1.5370   -3.2020 n         1 MOL     -0.752180
    116 O18        -4.3160   -0.6190   -2.8700 o         1 MOL     -0.511064
    117 H50        -1.4130    0.9850    0.7160 hn        1 MOL      0.267842
    118 H51        -3.1750    2.5920   -0.9680 h1        1 MOL      0.079006
    119 H52        -2.6320   -0.3010   -0.9690 hc        1 MOL      0.208688
    120 H53        -1.7810    0.7720   -1.9670 hc        1 MOL      0.208688
    121 H54        -3.8350    2.4280   -2.9940 hn        1 MOL      0.355200
    122 H55        -4.9530    1.4010   -3.9370 hn        1 MOL      0.355200
    123 N12        -5.5510    1.3720   -0.4720 n         1 MOL     -0.273177
    124 C39        -6.9130    0.8050   -0.1980 c3        1 MOL      0.101674
    125 C40        -6.7500   -0.5950    0.4240 c         1 MOL      0.371778
    126 O19        -7.2290   -0.8320    1.5680 o         1 MOL     -0.550014
    127 C41        -7.8080    0.7940   -1.4690 c3        1 MOL     -0.046334
    128 C42        -8.7260    1.9790   -1.7490 ca        1 MOL      0.103410
    129 C43        -9.9500    1.8950   -1.1590 ca        1 MOL     -0.157471
    130 C44        -8.3760    3.0570   -2.5330 ca        1 MOL     -0.157471
    131 C45       -10.8960    2.9050   -1.4190 ca        1 MOL     -0.270899
    132 C46        -9.2640    4.1230   -2.7320 ca        1 MOL     -0.270899
    133 C47       -10.5430    4.0410   -2.1700 ca        1 MOL      0.327192
    134 O20       -11.3740    5.1440   -2.2810 oh        1 MOL     -0.501090
    135 H56        -5.5310    1.8470   -1.3680 hn        1 MOL      0.112732
    136 H57        -7.3310    1.5160    0.5180 h1        1 MOL      0.043937
    137 H58        -8.4110   -0.1080   -1.4090 hc        1 MOL      0.044722
    138 H59        -7.1880    0.7240   -2.3570 hc        1 MOL      0.044722
    139 H60       -10.1590    1.0030   -0.5790 ha        1 MOL      0.144790
    140 H61        -7.4550    2.9690   -3.0950 ha        1 MOL      0.144790
    141 H62       -11.8180    2.9270   -0.8680 ha        1 MOL      0.138119
    142 H63        -9.0690    4.8470   -3.5040 ha        1 MOL      0.138119
    143 H64       -10.9240    5.8710   -2.7190 ho        1 MOL      0.343612
    144 N13        -6.0560   -1.5150   -0.2510 n         1 MOL     -0.056797
    145 C48        -5.9670   -2.9390    0.0570 c3        1 MOL     -0.229256
    146 C49        -4.9270   -3.3270    1.1210 c         1 MOL      0.397049
    147 O21        -4.7900   -4.4540    1.5680 o         1 MOL     -0.538088
    148 C50        -5.4390   -3.7440   -1.1600 c3        1 MOL     -0.068555
    149 C51        -6.2390   -3.5560   -2.4760 c3        1 MOL     -0.061813
    150 C52        -7.7370   -3.6450   -2.1890 c         1 MOL      0.705902
    151 O22        -8.4590   -2.6690   -2.5160 o         1 MOL     -0.739173
    152 O23        -8.2280   -4.6820   -1.6280 o         1 MOL     -0.739173
    153 H65        -5.6020   -1.2800   -1.1240 hn        1 MOL      0.174967
    154 H66        -6.9240   -3.3350    0.3950 h1        1 MOL      0.187286
    155 H67        -5.5250   -4.8240   -1.0010 hc        1 MOL      0.055560
    156 H68        -4.3880   -3.5200   -1.3010 hc        1 MOL      0.055560
    157 H69        -6.0140   -4.3940   -3.1290 hc        1 MOL     -0.026399
    158 H70        -5.9980   -2.6360   -3.0240 hc        1 MOL     -0.026399
    159 N14        -4.2070   -2.2910    1.5000 n         1 MOL     -0.108096
    160 C53        -3.2040   -2.3000    2.5910 c3        1 MOL      0.030499
    161 C54        -3.7990   -1.6330    3.8590 c         1 MOL      0.406592
    162 O24        -3.5690   -2.1950    4.8910 o         1 MOL     -0.568284
    163 C55        -1.8960   -1.6930    2.1460 c3        1 MOL      0.098697
    164 C56        -1.1590   -2.3950    1.0550 c3        1 MOL     -0.264670
    165 C57         0.0940   -1.5780    0.5750 c         1 MOL      0.793951
    166 O25         1.0620   -2.2050    0.0360 o         1 MOL     -0.746556
    167 O26         0.1490   -0.3480    0.5300 o         1 MOL     -0.746556
    168 H71        -4.4340   -1.3970    1.0820 hn        1 MOL      0.058257
    169 H72        -2.9290   -3.3330    2.7990 h1        1 MOL      0.057206
    170 H73        -1.2970   -1.6500    3.0570 hc        1 MOL      0.000036
    171 H74        -2.2170   -0.7320    1.7410 hc        1 MOL      0.000036
    172 H75        -1.8200   -2.4850    0.1910 hc        1 MOL      0.045853
    173 H76        -0.7100   -3.3540    1.3380 hc        1 MOL      0.045853
    174 N15        -4.6350   -0.6380    3.7650 n         1 MOL     -0.041194
    175 C58        -5.2590   -0.0900    5.0110 c3        1 MOL     -0.232158
    176 H77        -4.9390   -0.6820    5.8680 h1        1 MOL      0.082499
    177 H78        -4.9460    0.9460    5.1490 h1        1 MOL      0.082499
    178 H79        -6.3440   -0.1340    4.9240 h1        1 MOL      0.082499
    179 H80        -5.0310   -0.2810    2.9040 hn        1 MOL      0.110717
    180 Ca1         2.6820   -0.0080    0.2000 Ca        1 MOL      1.723611
    181 O27         2.5060   -0.7270    2.8500 oh        1 MOL     -0.901155
    182 H81         2.2710   -1.4420    3.4420 ho        1 MOL      0.417572
    183 H82         2.7850   -0.0160    3.4390 ho        1 MOL      0.417572
    184 O28         1.1730    1.3560   -1.5940 oh        1 MOL     -0.901155
    185 H83         1.3560    0.5720   -2.1150 ho        1 MOL      0.417572
    186 H84         1.8080    2.0070   -1.9110 ho        1 MOL      0.417572
    187 O29         4.7760    0.9050    1.7280 oh        1 MOL     -0.901155
    188 H85         5.3240    0.1250    1.6380 ho        1 MOL      0.417572
    189 H86         4.7710    1.0780    2.6700 ho        1 MOL      0.417572
@<TRIPOS>BOND
     1    1    2 1   
     2    1    4 1   
     3    1    5 1   
     4    1    6 1   
     5    2    3 2   
     6    2    7 1   
     7    7    8 1   
     8    7   15 1   
     9    8    9 1   
    10    8   11 1   
    11    8   16 1   
    12    9   10 2   
    13    9   19 1   
    14   11   12 1   
    15   11   17 1   
    16   11   18 1   
    17   12   13 1   
    18   12   14 1   
    19   19   20 1   
    20   19   27 1   
    21   20   21 1   
    22   20   23 1   
    23   20   28 1   
    24   21   22 2   
    25   21   38 1   
    26   23   24 1   
    27   23   25 1   
    28   23   29 1   
    29   24   26 1   
    30   24   30 1   
    31   24   31 1   
    32   25   32 1   
    33   25   33 1   
    34   25   34 1   
    35   26   35 1   
    36   26   36 1   
    37   26   37 1   
    38   38   39 1   
    39   38   46 1   
    40   39   40 1   
    41   39   42 1   
    42   39   47 1   
    43   40   41 2   
    44   40   50 1   
    45   42   43 1   
    46   42   48 1   
    47   42   49 1   
    48   43   44 1   
    49   43   45 1   
    50   50   51 1   
    51   50   54 1   
    52   51   52 1   
    53   51   55 1   
    54   51   56 1   
    55   52   53 2   
    56   52   57 1   
    57   57   58 1   
    58   57   65 1   
    59   58   59 1   
    60   58   61 1   
    61   58   66 1   
    62   59   60 2   
    63   59   69 1   
    64   61   62 1   
    65   61   67 1   
    66   61   68 1   
    67   62   63 1   
    68   62   64 1   
    69   69   70 1   
    70   69   73 1   
    71   70   71 1   
    72   70   74 1   
    73   70   75 1   
    74   71   72 2   
    75   71   76 1   
    76   76   77 1   
    77   76   85 1   
    78   77   78 1   
    79   77   80 1   
    80   77   86 1   
    81   78   79 2   
    82   78   93 1   
    83   80   81 1   
    84   80   87 1   
    85   80   88 1   
    86   81   82 1   
    87   81   89 1   
    88   81   90 1   
    89   82   83 1   
    90   82   84 2   
    91   83   91 1   
    92   83   92 1   
    93   93   94 1   
    94   93  100 1   
    95   94   95 1   
    96   94   97 1   
    97   94  101 1   
    98   95   96 2   
    99   95  109 1   
   100   97   98 1   
   101   97   99 1   
   102   97  102 1   
   103   98  103 1   
   104   98  104 1   
   105   98  105 1   
   106   99  106 1   
   107   99  107 1   
   108   99  108 1   
   109  109  110 1   
   110  109  117 1   
   111  110  111 1   
   112  110  113 1   
   113  110  118 1   
   114  111  112 2   
   115  111  123 1   
   116  113  114 1   
   117  113  119 1   
   118  113  120 1   
   119  114  115 1   
   120  114  116 2   
   121  115  121 1   
   122  115  122 1   
   123  123  124 1   
   124  123  135 1   
   125  124  125 1   
   126  124  127 1   
   127  124  136 1   
   128  125  126 2   
   129  125  144 1   
   130  127  128 1   
   131  127  137 1   
   132  127  138 1   
   133  128  129 ar  
   134  128  130 ar  
   135  129  131 ar  
   136  129  139 1   
   137  130  132 ar  
   138  130  140 1   
   139  131  133 ar  
   140  131  141 1   
   141  132  133 ar  
   142  132  142 1   
   143  133  134 1   
   144  134  143 1   
   145  144  145 1   
   146  144  153 1   
   147  145  146 1   
   148  145  148 1   
   149  145  154 1   
   150  146  147 2   
   151  146  159 1   
   152  148  149 1   
   153  148  155 1   
   154  148  156 1   
   155  149  150 1   
   156  149  157 1   
   157  149  158 1   
   158  150  151 1   
   159  150  152 1   
   160  159  160 1   
   161  159  168 1   
   162  160  161 1   
   163  160  163 1   
   164  160  169 1   
   165  161  162 2   
   166  161  174 1   
   167  163  164 1   
   168  163  170 1   
   169  163  171 1   
   170  164  165 1   
   171  164  172 1   
   172  164  173 1   
   173  165  166 1   
   174  165  167 1   
   175  174  175 1   
   176  174  179 1   
   177  175  176 1   
   178  175  177 1   
   179  175  178 1   
   180  181  182 1   
   181  181  183 1   
   182  184  185 1   
   183  184  186 1   
   184  187  188 1   
   185  187  189 1   
@<TRIPOS>SUBSTRUCTURE
     1 MOL         1 TEMP              0 ****  ****    0 ROOT
