@<TRIPOS>MOLECULE
MOL
  179   176     1     0     0
SMALL
resp


@<TRIPOS>ATOM
      1 C1          1.6280    4.4360    3.7960 c3        1 MOL     -0.421004
      2 C2          0.7350    3.8410    2.7090 c         1 MOL      0.602785
      3 O1          1.1270    3.8950    1.5590 o         1 MOL     -0.534233
      4 H1          2.6320    4.0210    3.7080 hc        1 MOL      0.114184
      5 H2          1.6710    5.5180    3.6790 hc        1 MOL      0.114184
      6 H3          1.2190    4.1920    4.7770 hc        1 MOL      0.114184
      7 N1         -0.4690    3.2770    2.9850 n         1 MOL     -0.635834
      8 C3         -1.3970    2.7450    1.9560 c3        1 MOL      0.048418
      9 C4         -2.2790    3.8820    1.3370 c         1 MOL      0.655767
     10 O2         -3.4810    3.9860    1.3750 o         1 MOL     -0.513287
     11 C5         -2.3030    1.6680    2.5560 c3        1 MOL     -0.295381
     12 C6         -3.1410    0.9950    1.4840 c         1 MOL      0.733154
     13 O3         -4.1720    0.3840    1.8560 o         1 MOL     -0.650849
     14 O4         -2.8230    1.0450    0.2670 o         1 MOL     -0.650849
     15 H4         -0.7860    3.2720    3.9520 hn        1 MOL      0.357714
     16 H5         -0.7470    2.4460    1.1380 h1        1 MOL      0.084932
     17 H6         -3.0260    2.0540    3.2770 hc        1 MOL      0.094348
     18 H7         -1.7400    0.8410    3.0090 hc        1 MOL      0.094348
     19 N2         -1.6000    4.7340    0.5670 n         1 MOL     -0.572697
     20 C7         -2.0730    5.8990   -0.1160 c3        1 MOL     -0.075659
     21 C8         -3.1560    5.5360   -1.1570 c         1 MOL      0.545512
     22 O5         -3.8060    6.4830   -1.5470 o         1 MOL     -0.555215
     23 C9         -0.9670    6.7520   -0.7140 c3        1 MOL     -0.036860
     24 C10        -0.1270    7.3520    0.4140 c3        1 MOL      0.031130
     25 C11         0.9350    8.3160   -0.2280 c3        1 MOL     -0.100909
     26 C12         1.8900    9.0710    0.7220 c3        1 MOL      0.017856
     27 N3          2.9490    8.2740    1.3080 n4        1 MOL     -0.296683
     28 H8         -0.6200    4.5180    0.4770 hn        1 MOL      0.380660
     29 H9         -2.6370    6.5130    0.5900 h1        1 MOL      0.128711
     30 H10        -1.4250    7.5880   -1.2500 hc        1 MOL      0.046077
     31 H11        -0.3390    6.1770   -1.3870 hc        1 MOL      0.046077
     32 H12         0.5170    6.6020    0.8670 hc        1 MOL      0.005444
     33 H13        -0.7920    7.8870    1.0900 hc        1 MOL      0.005444
     34 H14         0.3560    9.0910   -0.7330 hc        1 MOL      0.072098
     35 H15         1.4960    7.8060   -1.0190 hc        1 MOL      0.072098
     36 H16         1.3220    9.4840    1.5480 hx        1 MOL      0.077508
     37 H17         2.3590    9.9210    0.2290 hx        1 MOL      0.077508
     38 H18         3.3680    8.8320    2.0380 hn        1 MOL      0.316842
     39 H19         2.5340    7.4660    1.7590 hn        1 MOL      0.316842
     40 H20         3.7220    8.0810    0.6800 hn        1 MOL      0.316842
     41 N4         -3.3820    4.2550   -1.5130 n         1 MOL     -0.206187
     42 C13        -4.3360    3.8250   -2.5050 c3        1 MOL      0.018976
     43 C14        -5.6060    3.2920   -1.8130 c         1 MOL      0.451795
     44 O6         -6.6710    3.9210   -2.1020 o         1 MOL     -0.551606
     45 C15        -3.7330    2.8720   -3.5370 c3        1 MOL     -0.303837
     46 C16        -3.0240    1.6150   -2.9530 c         1 MOL      0.660432
     47 O7         -3.6270    0.5380   -2.6090 o         1 MOL     -0.680329
     48 O8         -1.7780    1.7100   -2.6970 o         1 MOL     -0.680329
     49 H21        -2.8630    3.4920   -1.1020 hn        1 MOL      0.165013
     50 H22        -4.5660    4.7560   -3.0270 h1        1 MOL      0.093092
     51 H23        -2.9600    3.4400   -4.0480 hc        1 MOL      0.085071
     52 H24        -4.4380    2.5440   -4.2950 hc        1 MOL      0.085071
     53 N5         -5.4550    2.4720   -0.7580 n         1 MOL      0.028422
     54 C17        -6.5500    1.9780    0.0170 c3        1 MOL     -0.217613
     55 C18        -7.0900    0.6260   -0.4210 c         1 MOL      0.531192
     56 O9         -8.2760    0.4980   -0.6350 o         1 MOL     -0.547569
     57 H25        -4.4990    2.2040   -0.5540 hn        1 MOL     -0.022756
     58 H26        -7.4390    2.6190   -0.0230 h1        1 MOL      0.118611
     59 H27        -6.2800    1.9450    1.0790 h1        1 MOL      0.118611
     60 N6         -6.2310   -0.3760   -0.4770 n         1 MOL     -0.075345
     61 C19        -6.5770   -1.8400   -0.4080 c3        1 MOL     -0.108932
     62 C20        -6.3070   -2.5930    0.8870 c         1 MOL      0.442078
     63 O10        -6.6220   -3.7720    1.0140 o         1 MOL     -0.503783
     64 C21        -5.9600   -2.5830   -1.6210 c3        1 MOL     -0.117081
     65 C22        -4.4280   -2.5320   -1.7070 c         1 MOL      0.708054
     66 N7         -3.7830   -2.6290   -2.8550 n         1 MOL     -0.852614
     67 O11        -3.6390   -2.3160   -0.7570 o         1 MOL     -0.506328
     68 H28        -5.2670   -0.1000   -0.3110 hn        1 MOL     -0.167117
     69 H29        -7.6620   -1.8550   -0.5670 h1        1 MOL      0.116629
     70 H30        -6.3320   -2.1810   -2.5650 hc        1 MOL      0.075182
     71 H31        -6.2960   -3.6230   -1.6440 hc        1 MOL      0.075182
     72 H32        -4.3180   -2.7720   -3.6950 hn        1 MOL      0.353033
     73 H33        -2.7690   -2.6160   -2.9170 hn        1 MOL      0.353033
     74 N8         -5.8050   -1.9500    1.9020 n         1 MOL     -0.197534
     75 C23        -5.5180   -2.5540    3.2270 c3        1 MOL     -0.258240
     76 C24        -4.1230   -3.1720    3.3810 c         1 MOL      0.645556
     77 O12        -3.9220   -3.7980    4.4170 o         1 MOL     -0.591659
     78 H34        -5.3760   -1.0570    1.7210 hn        1 MOL      0.240148
     79 H35        -6.3000   -3.3110    3.3300 h1        1 MOL      0.123937
     80 H36        -5.4310   -1.7650    3.9760 h1        1 MOL      0.123937
     81 N9         -3.1880   -3.0090    2.4520 n         1 MOL     -0.339344
     82 C25        -1.8710   -3.5700    2.5500 c3        1 MOL      0.019357
     83 C26        -0.8670   -2.7410    1.8150 c         1 MOL      0.574537
     84 O13        -1.1910   -1.9020    0.9420 o         1 MOL     -0.657813
     85 C27        -1.9240   -5.0390    2.1860 c3        1 MOL      0.101431
     86 C28        -2.2200   -5.4700    0.7780 ca        1 MOL     -0.156814
     87 C29        -3.6060   -5.4780    0.4640 ca        1 MOL      0.019091
     88 C30        -1.2500   -5.8780   -0.1760 ca        1 MOL      0.019091
     89 C31        -4.0150   -5.8700   -0.8520 ca        1 MOL     -0.359287
     90 C32        -1.7250   -6.2790   -1.4420 ca        1 MOL     -0.359287
     91 C33        -3.0810   -6.2250   -1.8070 ca        1 MOL      0.410717
     92 O14        -3.5350   -6.4070   -3.0530 oh        1 MOL     -0.434086
     93 H37        -3.4620   -2.5420    1.6070 hn        1 MOL      0.289107
     94 H38        -1.6380   -3.5040    3.6070 h1        1 MOL      0.045982
     95 H39        -2.4600   -5.6110    2.9450 hc        1 MOL      0.011614
     96 H40        -0.8860   -5.2870    2.4030 hc        1 MOL      0.011614
     97 H41        -4.1820   -5.0600    1.2830 ha        1 MOL      0.078139
     98 H42        -0.2010   -5.9470    0.0830 ha        1 MOL      0.078139
     99 H43        -5.0620   -5.9450   -1.1280 ha        1 MOL      0.141441
    100 H44        -1.0170   -6.6070   -2.1930 ha        1 MOL      0.141441
    101 H45        -2.7630   -6.6330   -3.5930 ho        1 MOL      0.313447
    102 N10         0.4190   -2.9040    2.1980 n         1 MOL     -0.365783
    103 C34         1.5430   -2.2420    1.5630 c3        1 MOL     -0.016315
    104 C35         2.6850   -3.2790    1.1960 c         1 MOL      0.447959
    105 O15         2.8210   -4.3990    1.7660 o         1 MOL     -0.521814
    106 C36         2.1500   -1.0950    2.4870 c3        1 MOL      0.100830
    107 C37         2.4330   -1.6460    3.8580 c3        1 MOL      0.086587
    108 C38         1.2260    0.1230    2.5900 c3        1 MOL     -0.557488
    109 C39         3.3320   -0.6950    4.7510 c3        1 MOL     -0.108177
    110 H46         0.6460   -3.6970    2.7710 hn        1 MOL      0.258044
    111 H47         1.1350   -1.6900    0.7060 h1        1 MOL      0.107220
    112 H48         3.0970   -0.7180    2.0950 hc        1 MOL     -0.066209
    113 H49         3.0090   -2.5710    3.7670 hc        1 MOL     -0.019888
    114 H50         1.5010   -1.8910    4.3640 hc        1 MOL     -0.019888
    115 H51         1.8180    0.9400    2.9880 hc        1 MOL      0.170705
    116 H52         0.8410    0.3990    1.6080 hc        1 MOL      0.170705
    117 H53         0.4100   -0.1120    3.2780 hc        1 MOL      0.170705
    118 H54         4.2380   -0.4550    4.2020 hc        1 MOL      0.026553
    119 H55         2.8660    0.2710    4.9240 hc        1 MOL      0.026553
    120 H56         3.4890   -1.0840    5.7620 hc        1 MOL      0.026553
    121 N11         3.5000   -2.8990    0.2590 n         1 MOL     -0.381011
    122 C40         4.8280   -3.5090   -0.0520 c3        1 MOL      0.322177
    123 C41         6.0660   -2.6400    0.2110 c         1 MOL      0.252920
    124 O16         5.9570   -1.5100    0.6800 o         1 MOL     -0.310222
    125 C42         4.7660   -4.0460   -1.4920 c3        1 MOL     -0.090062
    126 O17         4.4580   -3.0470   -2.4560 oh        1 MOL     -0.553663
    127 H57         3.2800   -2.0460   -0.2430 hn        1 MOL      0.246952
    128 H58         4.8920   -4.4360    0.5010 h1        1 MOL      0.000827
    129 H59         4.0370   -4.8460   -1.5730 h1        1 MOL      0.079128
    130 H60         5.7650   -4.4300   -1.6980 h1        1 MOL      0.079128
    131 H61         3.6440   -3.2600   -2.9000 ho        1 MOL      0.402236
    132 N12         7.2390   -3.1750   -0.1080 n         1 MOL     -0.303309
    133 C43         8.5550   -2.5260    0.1430 c3        1 MOL     -0.026004
    134 C44         8.6860   -1.2350   -0.6560 c         1 MOL      0.359129
    135 O18         9.4820   -0.3340   -0.2940 o         1 MOL     -0.495253
    136 C45         9.7490   -3.4300   -0.1430 c3        1 MOL     -0.161309
    137 H62         7.2470   -4.1500   -0.3960 hn        1 MOL      0.256730
    138 H63         8.6460   -2.1940    1.1840 h1        1 MOL      0.117210
    139 H64        10.7410   -2.9920   -0.0260 hc        1 MOL      0.071122
    140 H65         9.8360   -4.3660    0.4100 hc        1 MOL      0.071122
    141 H66         9.7450   -3.7160   -1.1950 hc        1 MOL      0.071122
    142 N13         8.0090   -1.0880   -1.8130 n         1 MOL     -0.230055
    143 C46         7.9870    0.0510   -2.6410 c3        1 MOL      0.042397
    144 C47         6.9560    1.0980   -2.1220 c         1 MOL      0.318988
    145 O19         7.0820    2.2700   -2.5320 o         1 MOL     -0.507791
    146 C48         7.5240   -0.2900   -4.0300 c3        1 MOL     -0.142455
    147 H67         7.5370   -1.9250   -2.1120 hn        1 MOL      0.252620
    148 H68         8.9760    0.5100   -2.6550 h1        1 MOL      0.112857
    149 H69         7.4600    0.5880   -4.6760 hc        1 MOL      0.041107
    150 H70         8.2370   -1.0250   -4.3970 hc        1 MOL      0.041107
    151 H71         6.6620   -0.9400   -3.9620 hc        1 MOL      0.041107
    152 N14         5.9270    0.6920   -1.3730 n         1 MOL     -0.039994
    153 C49         4.9880    1.5910   -0.6810 c3        1 MOL     -0.161827
    154 C50         5.5880    2.2590    0.5540 c         1 MOL      0.506198
    155 O20         5.4630    3.4090    0.7790 o         1 MOL     -0.542133
    156 C51         3.6490    0.8420   -0.5220 c3        1 MOL      0.066141
    157 C52         2.9750    0.5010   -1.8590 c3        1 MOL     -0.131400
    158 C53         1.5400   -0.0630   -1.6730 c         1 MOL      0.850987
    159 O21         0.6540    0.7630   -1.4290 o         1 MOL     -0.809138
    160 O22         1.2640   -1.2450   -1.6040 o         1 MOL     -0.809138
    161 H72         6.0140   -0.2520   -1.0350 hn        1 MOL      0.091213
    162 H73         4.7340    2.3540   -1.4260 h1        1 MOL      0.102793
    163 H74         3.1370    1.4920    0.1750 hc        1 MOL      0.051244
    164 H75         3.8970   -0.0970   -0.0300 hc        1 MOL      0.051244
    165 H76         3.6720   -0.1650   -2.3770 hc        1 MOL      0.006206
    166 H77         2.9480    1.3420   -2.5460 hc        1 MOL      0.006206
    167 N15         6.1650    1.3660    1.4060 n         1 MOL     -0.184239
    168 C54         6.8400    1.6800    2.6850 c3        1 MOL     -0.083374
    169 H78         7.9020    1.4470    2.6010 h1        1 MOL      0.061416
    170 H79         6.7190    2.7400    2.9090 h1        1 MOL      0.061416
    171 H80         6.3990    1.0860    3.4850 h1        1 MOL      0.061416
    172 H81         6.0860    0.4180    1.0740 hn        1 MOL      0.107489
    173 Ca1        -1.5330   -0.6070   -1.3650 Ca        1 MOL      1.760374
    174 O23        -1.1210   -3.2640   -1.6520 oh        1 MOL     -0.820867
    175 H82        -1.0150   -3.7510   -2.4640 ho        1 MOL      0.404754
    176 H83        -1.4450   -3.9070   -1.0180 ho        1 MOL      0.404754
    177 O24        -1.2130   -0.8320   -3.9910 oh        1 MOL     -0.820867
    178 H84        -0.3860   -0.6620   -4.4630 ho        1 MOL      0.404754
    179 H85        -1.8770   -0.8120   -4.6780 ho        1 MOL      0.404754
@<TRIPOS>BOND
     1    1    2 1   
     2    1    4 1   
     3    1    5 1   
     4    1    6 1   
     5    2    3 2   
     6    2    7 1   
     7    7    8 1   
     8    7   15 1   
     9    8    9 1   
    10    8   11 1   
    11    8   16 1   
    12    9   10 2   
    13    9   19 1   
    14   11   12 1   
    15   11   17 1   
    16   11   18 1   
    17   12   13 1   
    18   12   14 1   
    19   19   20 1   
    20   19   28 1   
    21   20   21 1   
    22   20   23 1   
    23   20   29 1   
    24   21   22 2   
    25   21   41 1   
    26   23   24 1   
    27   23   30 1   
    28   23   31 1   
    29   24   25 1   
    30   24   32 1   
    31   24   33 1   
    32   25   26 1   
    33   25   34 1   
    34   25   35 1   
    35   26   27 1   
    36   26   36 1   
    37   26   37 1   
    38   27   38 1   
    39   27   39 1   
    40   27   40 1   
    41   41   42 1   
    42   41   49 1   
    43   42   43 1   
    44   42   45 1   
    45   42   50 1   
    46   43   44 2   
    47   43   53 1   
    48   45   46 1   
    49   45   51 1   
    50   45   52 1   
    51   46   47 1   
    52   46   48 1   
    53   53   54 1   
    54   53   57 1   
    55   54   55 1   
    56   54   58 1   
    57   54   59 1   
    58   55   56 2   
    59   55   60 1   
    60   60   61 1   
    61   60   68 1   
    62   61   62 1   
    63   61   64 1   
    64   61   69 1   
    65   62   63 2   
    66   62   74 1   
    67   64   65 1   
    68   64   70 1   
    69   64   71 1   
    70   65   66 1   
    71   65   67 2   
    72   66   72 1   
    73   66   73 1   
    74   74   75 1   
    75   74   78 1   
    76   75   76 1   
    77   75   79 1   
    78   75   80 1   
    79   76   77 2   
    80   76   81 1   
    81   81   82 1   
    82   81   93 1   
    83   82   83 1   
    84   82   85 1   
    85   82   94 1   
    86   83   84 2   
    87   83  102 1   
    88   85   86 1   
    89   85   95 1   
    90   85   96 1   
    91   86   87 ar  
    92   86   88 ar  
    93   87   89 ar  
    94   87   97 1   
    95   88   90 ar  
    96   88   98 1   
    97   89   91 ar  
    98   89   99 1   
    99   90   91 ar  
   100   90  100 1   
   101   91   92 1   
   102   92  101 1   
   103  102  103 1   
   104  102  110 1   
   105  103  104 1   
   106  103  106 1   
   107  103  111 1   
   108  104  105 2   
   109  104  121 1   
   110  106  107 1   
   111  106  108 1   
   112  106  112 1   
   113  107  109 1   
   114  107  113 1   
   115  107  114 1   
   116  108  115 1   
   117  108  116 1   
   118  108  117 1   
   119  109  118 1   
   120  109  119 1   
   121  109  120 1   
   122  121  122 1   
   123  121  127 1   
   124  122  123 1   
   125  122  125 1   
   126  122  128 1   
   127  123  124 2   
   128  123  132 1   
   129  125  126 1   
   130  125  129 1   
   131  125  130 1   
   132  126  131 1   
   133  132  133 1   
   134  132  137 1   
   135  133  134 1   
   136  133  136 1   
   137  133  138 1   
   138  134  135 2   
   139  134  142 1   
   140  136  139 1   
   141  136  140 1   
   142  136  141 1   
   143  142  143 1   
   144  142  147 1   
   145  143  144 1   
   146  143  146 1   
   147  143  148 1   
   148  144  145 2   
   149  144  152 1   
   150  146  149 1   
   151  146  150 1   
   152  146  151 1   
   153  152  153 1   
   154  152  161 1   
   155  153  154 1   
   156  153  156 1   
   157  153  162 1   
   158  154  155 2   
   159  154  167 1   
   160  156  157 1   
   161  156  163 1   
   162  156  164 1   
   163  157  158 1   
   164  157  165 1   
   165  157  166 1   
   166  158  159 1   
   167  158  160 1   
   168  167  168 1   
   169  167  172 1   
   170  168  169 1   
   171  168  170 1   
   172  168  171 1   
   173  174  175 1   
   174  174  176 1   
   175  177  178 1   
   176  177  179 1   
@<TRIPOS>SUBSTRUCTURE
     1 MOL         1 TEMP              0 ****  ****    0 ROOT
