@<TRIPOS>MOLECULE
MOL
  179   176     1     0     0
SMALL
resp


@<TRIPOS>ATOM
      1 C1         -1.4580   -2.5550    6.0370 c3        1 MOL     -0.378055
      2 C2         -1.0120   -2.3330    4.5730 c         1 MOL      0.825616
      3 O1         -1.8080   -2.2170    3.6640 o         1 MOL     -0.657577
      4 H1         -0.8080   -1.9880    6.7030 hc        1 MOL      0.097358
      5 H2         -2.4870   -2.2170    6.1600 hc        1 MOL      0.097358
      6 H3         -1.3910   -3.6150    6.2800 hc        1 MOL      0.097358
      7 N1          0.2530   -2.3360    4.2340 n         1 MOL     -0.716638
      8 C3          0.7890   -2.3300    2.8680 c3        1 MOL      0.099728
      9 C4          1.0750   -3.7330    2.3840 c         1 MOL      0.635330
     10 O2          1.7450   -4.5510    3.0360 o         1 MOL     -0.532043
     11 C5          2.0920   -1.5320    3.0360 c3        1 MOL     -0.161002
     12 C6          2.7620   -1.0170    1.7200 c         1 MOL      0.819446
     13 O3          3.7290   -0.2350    1.7920 o         1 MOL     -0.813988
     14 O4          2.4860   -1.5680    0.6460 o         1 MOL     -0.813988
     15 H4          0.8710   -2.2700    5.0270 hn        1 MOL      0.336648
     16 H5          0.1300   -1.8270    2.1540 h1        1 MOL      0.042348
     17 H6          2.6980   -2.2400    3.5990 hc        1 MOL      0.053024
     18 H7          1.7780   -0.6560    3.5960 hc        1 MOL      0.053024
     19 N2          0.4790   -4.0630    1.1990 n         1 MOL     -0.440409
     20 C7          0.7260   -5.3040    0.4740 c3        1 MOL     -0.008907
     21 C8          2.1840   -5.6220    0.1360 c         1 MOL      0.396023
     22 O5          2.6810   -6.6580    0.5090 o         1 MOL     -0.527040
     23 C9         -0.2270   -5.4020   -0.7210 c3        1 MOL      0.042313
     24 C10        -1.7390   -5.4670   -0.4470 c3        1 MOL     -0.086663
     25 C11        -2.4360   -5.7090   -1.8580 c3        1 MOL     -0.048867
     26 C12        -3.9060   -6.0140   -1.5530 c3        1 MOL      0.255727
     27 N3         -4.5830   -6.0860   -2.8680 n4        1 MOL     -0.486287
     28 H8          0.0060   -3.3190    0.7200 hn        1 MOL      0.314680
     29 H9          0.4500   -6.1030    1.1610 h1        1 MOL      0.070277
     30 H10        -0.0010   -6.2800   -1.3300 hc        1 MOL     -0.006846
     31 H11        -0.0060   -4.5700   -1.4020 hc        1 MOL     -0.006846
     32 H12        -2.0440   -4.5010   -0.0430 hc        1 MOL      0.060661
     33 H13        -1.8780   -6.3090    0.2240 hc        1 MOL      0.060661
     34 H14        -2.1080   -6.5980   -2.3810 hc        1 MOL      0.030575
     35 H15        -2.4600   -4.8140   -2.4800 hc        1 MOL      0.030575
     36 H16        -4.2990   -5.1740   -0.9810 hx        1 MOL      0.026925
     37 H17        -4.0710   -6.9470   -1.0130 hx        1 MOL      0.026925
     38 H18        -5.4220   -5.5270   -2.8110 hn        1 MOL      0.349827
     39 H19        -4.0420   -5.7330   -3.6460 hn        1 MOL      0.349827
     40 H20        -4.8250   -7.0620   -3.0060 hn        1 MOL      0.349827
     41 N4          2.8090   -4.6890   -0.5180 n         1 MOL     -0.064788
     42 C13         4.1840   -4.8730   -1.0620 c3        1 MOL     -0.240571
     43 C14         5.2420   -4.1700   -0.2370 c         1 MOL      0.587696
     44 O6          6.3770   -4.3190   -0.4860 o         1 MOL     -0.530910
     45 C15         4.2150   -4.3950   -2.5500 c3        1 MOL     -0.184463
     46 C16         3.4270   -3.1340   -3.0000 c         1 MOL      0.628704
     47 O7          3.6000   -2.8750   -4.2200 o         1 MOL     -0.690443
     48 O8          2.8020   -2.3270   -2.2610 o         1 MOL     -0.690443
     49 H21         2.3950   -3.8070   -0.7830 hn        1 MOL      0.110978
     50 H22         4.5570   -5.8910   -0.9100 h1        1 MOL      0.152393
     51 H23         3.8170   -5.1580   -3.2270 hc        1 MOL      0.088716
     52 H24         5.2070   -4.2030   -2.9410 hc        1 MOL      0.088716
     53 N5          4.9300   -3.3920    0.7950 n         1 MOL     -0.279096
     54 C17         5.8330   -2.5940    1.5030 c3        1 MOL     -0.002932
     55 C18         6.7160   -1.6110    0.6350 c         1 MOL      0.346091
     56 O9          7.9390   -1.4940    0.7120 o         1 MOL     -0.534899
     57 H25         3.9320   -3.2500    0.9220 hn        1 MOL      0.180301
     58 H26         6.5570   -3.1850    2.0620 h1        1 MOL      0.055210
     59 H27         5.3400   -2.0530    2.3120 h1        1 MOL      0.055210
     60 N6          6.0160   -0.9410   -0.2030 n         1 MOL     -0.037806
     61 C19         6.6180    0.1240   -1.0500 c3        1 MOL     -0.123141
     62 C20         6.7000    1.4640   -0.2560 c         1 MOL      0.439916
     63 O10         7.1340    2.4540   -0.8500 o         1 MOL     -0.482919
     64 C21         5.9420    0.1900   -2.4420 c3        1 MOL     -0.330389
     65 C22         4.6180    0.9410   -2.5350 c         1 MOL      0.578174
     66 N7          4.5450    1.7400   -3.5870 n         1 MOL     -0.695285
     67 O11         3.7530    0.7990   -1.6800 o         1 MOL     -0.563496
     68 H28         5.0160   -1.0790   -0.2600 hn        1 MOL      0.159277
     69 H29         7.6900   -0.0870   -1.1200 h1        1 MOL      0.153936
     70 H30         5.6790   -0.8400   -2.6440 hc        1 MOL      0.147638
     71 H31         6.6530    0.5620   -3.1720 hc        1 MOL      0.147638
     72 H32         5.2960    1.6920   -4.2600 hn        1 MOL      0.362616
     73 H33         3.7840    2.4040   -3.5690 hn        1 MOL      0.362616
     74 N8          6.2330    1.4770    1.0190 n         1 MOL     -0.390954
     75 C23         6.1530    2.7410    1.8010 c3        1 MOL     -0.038910
     76 C24         4.7140    3.3970    1.8470 c         1 MOL      0.614297
     77 O12         4.5700    4.5140    2.3310 o         1 MOL     -0.554501
     78 H34         5.7050    0.6510    1.2510 hn        1 MOL      0.312485
     79 H35         6.9040    3.4510    1.4460 h1        1 MOL      0.083102
     80 H36         6.3760    2.5740    2.8540 h1        1 MOL      0.083102
     81 N9          3.7000    2.6990    1.2320 n         1 MOL     -0.631840
     82 C25         2.3590    3.3720    0.9920 c3        1 MOL      0.052066
     83 C26         1.1180    2.4740    1.1510 c         1 MOL      0.744230
     84 O13         1.2090    1.3500    0.6600 o         1 MOL     -0.635541
     85 C27         2.3230    4.0120   -0.3830 c3        1 MOL      0.334140
     86 C28         3.2130    5.2280   -0.6090 ca        1 MOL     -0.178574
     87 C29         4.4300    5.0600   -1.3510 ca        1 MOL     -0.172197
     88 C30         2.9400    6.5150   -0.0670 ca        1 MOL     -0.172197
     89 C31         5.4230    6.0450   -1.3690 ca        1 MOL     -0.152064
     90 C32         3.9590    7.5030   -0.1370 ca        1 MOL     -0.152064
     91 C33         5.1830    7.2700   -0.7300 ca        1 MOL      0.299030
     92 O14         6.1500    8.1970   -0.6640 oh        1 MOL     -0.492559
     93 H37         3.9540    1.7960    0.8560 hn        1 MOL      0.460447
     94 H38         2.2400    4.2210    1.6730 h1        1 MOL      0.074962
     95 H39         1.3030    4.2800   -0.6770 hc        1 MOL     -0.050551
     96 H40         2.5290    3.1690   -1.0320 hc        1 MOL     -0.050551
     97 H41         4.5780    4.0620   -1.7420 ha        1 MOL      0.123620
     98 H42         1.9870    6.7300    0.3790 ha        1 MOL      0.123620
     99 H43         6.2890    6.0080   -2.0010 ha        1 MOL      0.114664
    100 H44         3.7660    8.4590    0.3320 ha        1 MOL      0.114664
    101 H45         6.0250    8.8720    0.0030 ho        1 MOL      0.372559
    102 N10        -0.0870    3.0440    1.4520 n         1 MOL     -0.810006
    103 C34        -1.4170    2.3950    1.1050 c3        1 MOL      0.169911
    104 C35        -2.2560    3.2980    0.2490 c         1 MOL      0.644341
    105 O15        -2.3980    4.4870    0.4500 o         1 MOL     -0.564807
    106 C36        -2.2040    2.0370    2.4300 c3        1 MOL      0.113696
    107 C37        -2.1890    3.0920    3.6010 c3        1 MOL     -0.207568
    108 C38        -1.6190    0.7010    2.8620 c3        1 MOL     -0.802025
    109 C39        -3.2850    2.8340    4.6440 c3        1 MOL     -0.175203
    110 H46        -0.1180    4.0370    1.6260 hn        1 MOL      0.327115
    111 H47        -1.3030    1.4160    0.6520 h1        1 MOL      0.009449
    112 H48        -3.2510    1.8700    2.1860 hc        1 MOL      0.050408
    113 H49        -2.4440    4.0430    3.1440 hc        1 MOL      0.120228
    114 H50        -1.2730    3.0010    4.1790 hc        1 MOL      0.120228
    115 H51        -2.1550    0.3440    3.7420 hc        1 MOL      0.246259
    116 H52        -1.6230   -0.0070    2.0380 hc        1 MOL      0.246259
    117 H53        -0.5690    0.8350    3.1370 hc        1 MOL      0.246259
    118 H54        -3.3210    3.6540    5.3510 hc        1 MOL      0.049571
    119 H55        -4.1930    2.6620    4.0700 hc        1 MOL      0.049571
    120 H56        -3.0290    1.9230    5.2000 hc        1 MOL      0.049571
    121 N11        -3.0420    2.7140   -0.6400 n         1 MOL     -0.556638
    122 C40        -4.1800    3.3550   -1.2780 c3        1 MOL      0.248342
    123 C41        -5.4450    3.1000   -0.3930 c         1 MOL      0.273866
    124 O16        -5.5150    2.2530    0.4560 o         1 MOL     -0.305379
    125 C42        -4.5040    2.8040   -2.6890 c3        1 MOL     -0.198444
    126 O17        -4.5760    1.4350   -2.5730 oh        1 MOL     -0.219751
    127 H57        -2.8480    1.7220   -0.7350 hn        1 MOL      0.232989
    128 H58        -4.0770    4.4360   -1.3540 h1        1 MOL      0.041771
    129 H59        -3.7740    3.1610   -3.4160 h1        1 MOL      0.083443
    130 H60        -5.4610    3.2840   -2.9170 h1        1 MOL      0.083443
    131 H61        -3.9600    1.1760   -3.2570 ho        1 MOL      0.346890
    132 N12        -6.4450    3.8420   -0.7610 n         1 MOL     -0.267902
    133 C43        -7.7860    3.5160   -0.4030 c3        1 MOL      0.029369
    134 C44        -8.3060    2.0960   -0.7130 c         1 MOL      0.388025
    135 O18        -9.3040    1.5960   -0.1400 o         1 MOL     -0.479613
    136 C45        -8.7980    4.5570   -0.7990 c3        1 MOL     -0.357314
    137 H62        -6.1800    4.6470   -1.3100 hn        1 MOL      0.261149
    138 H63        -7.7690    3.4070    0.6770 h1        1 MOL      0.091795
    139 H64        -9.8400    4.3620   -0.5370 hc        1 MOL      0.117900
    140 H65        -8.5220    5.5190   -0.3700 hc        1 MOL      0.117900
    141 H66        -8.8840    4.6420   -1.8830 hc        1 MOL      0.117900
    142 N13        -7.6370    1.4560   -1.7230 n         1 MOL     -0.280773
    143 C46        -7.9160    0.0890   -2.1450 c3        1 MOL      0.123009
    144 C47        -7.1150   -0.9210   -1.3310 c         1 MOL      0.329991
    145 O19        -7.6900   -1.9360   -0.9390 o         1 MOL     -0.519831
    146 C48        -7.6010   -0.0460   -3.6460 c3        1 MOL     -0.105170
    147 H67        -6.9210    1.9940   -2.1910 hn        1 MOL      0.226156
    148 H68        -8.9750   -0.1580   -2.0200 h1        1 MOL      0.092897
    149 H69        -6.6040    0.3340   -3.8840 hc        1 MOL      0.015372
    150 H70        -7.7750   -1.0720   -3.9840 hc        1 MOL      0.015372
    151 H71        -8.2720    0.6540   -4.1470 hc        1 MOL      0.015372
    152 N14        -5.9260   -0.5810   -0.9410 n         1 MOL     -0.025590
    153 C49        -5.2110   -1.4490    0.0870 c3        1 MOL     -0.131858
    154 C50        -5.8450   -1.3600    1.4930 c         1 MOL      0.407900
    155 O20        -6.0400   -2.4220    2.1060 o         1 MOL     -0.519809
    156 C51        -3.7840   -1.0100    0.2020 c3        1 MOL     -0.050620
    157 C52        -2.9470   -1.5890   -0.9310 c3        1 MOL     -0.000726
    158 C53        -1.4850   -1.1410   -0.7930 c         1 MOL      0.802991
    159 O21        -0.5900   -1.8750   -0.3020 o         1 MOL     -0.769184
    160 O22        -1.1340   -0.1370   -1.4190 o         1 MOL     -0.769184
    161 H72        -5.4460    0.2490   -1.2810 hn        1 MOL     -0.072249
    162 H73        -5.3840   -2.4970   -0.1660 h1        1 MOL      0.122333
    163 H74        -3.3540   -1.4360    1.1070 hc        1 MOL      0.080655
    164 H75        -3.6640    0.0740    0.2290 hc        1 MOL      0.080655
    165 H76        -3.4610   -1.2180   -1.8160 hc        1 MOL     -0.058002
    166 H77        -3.0250   -2.6740   -0.9520 hc        1 MOL     -0.058002
    167 N15        -6.3500   -0.1720    1.9090 n         1 MOL     -0.101418
    168 C54        -7.0650   -0.0650    3.2350 c3        1 MOL     -0.207325
    169 H78        -8.0710    0.3240    3.0760 h1        1 MOL      0.098692
    170 H79        -7.1280   -1.0510    3.6960 h1        1 MOL      0.098692
    171 H80        -6.5150    0.6090    3.8920 h1        1 MOL      0.098692
    172 H81        -6.0390    0.6820    1.4620 hn        1 MOL      0.128865
    173 Ca1         1.3870   -0.3670   -1.3640 Ca        1 MOL      1.788546
    174 O23         1.1290    1.7440   -2.9850 oh        1 MOL     -0.847820
    175 H82         0.9690    1.4440   -3.8830 ho        1 MOL      0.410140
    176 H83         0.6440    2.5640   -2.9150 ho        1 MOL      0.410140
    177 O24         0.4700   -1.4060   -3.7110 oh        1 MOL     -0.847820
    178 H84        -0.1920   -2.0750   -3.8920 ho        1 MOL      0.410140
    179 H85         1.1930   -1.6160   -4.3050 ho        1 MOL      0.410140
@<TRIPOS>BOND
     1    1    2 1   
     2    1    4 1   
     3    1    5 1   
     4    1    6 1   
     5    2    3 2   
     6    2    7 1   
     7    7    8 1   
     8    7   15 1   
     9    8    9 1   
    10    8   11 1   
    11    8   16 1   
    12    9   10 2   
    13    9   19 1   
    14   11   12 1   
    15   11   17 1   
    16   11   18 1   
    17   12   13 1   
    18   12   14 1   
    19   19   20 1   
    20   19   28 1   
    21   20   21 1   
    22   20   23 1   
    23   20   29 1   
    24   21   22 2   
    25   21   41 1   
    26   23   24 1   
    27   23   30 1   
    28   23   31 1   
    29   24   25 1   
    30   24   32 1   
    31   24   33 1   
    32   25   26 1   
    33   25   34 1   
    34   25   35 1   
    35   26   27 1   
    36   26   36 1   
    37   26   37 1   
    38   27   38 1   
    39   27   39 1   
    40   27   40 1   
    41   41   42 1   
    42   41   49 1   
    43   42   43 1   
    44   42   45 1   
    45   42   50 1   
    46   43   44 2   
    47   43   53 1   
    48   45   46 1   
    49   45   51 1   
    50   45   52 1   
    51   46   47 1   
    52   46   48 1   
    53   53   54 1   
    54   53   57 1   
    55   54   55 1   
    56   54   58 1   
    57   54   59 1   
    58   55   56 2   
    59   55   60 1   
    60   60   61 1   
    61   60   68 1   
    62   61   62 1   
    63   61   64 1   
    64   61   69 1   
    65   62   63 2   
    66   62   74 1   
    67   64   65 1   
    68   64   70 1   
    69   64   71 1   
    70   65   66 1   
    71   65   67 2   
    72   66   72 1   
    73   66   73 1   
    74   74   75 1   
    75   74   78 1   
    76   75   76 1   
    77   75   79 1   
    78   75   80 1   
    79   76   77 2   
    80   76   81 1   
    81   81   82 1   
    82   81   93 1   
    83   82   83 1   
    84   82   85 1   
    85   82   94 1   
    86   83   84 2   
    87   83  102 1   
    88   85   86 1   
    89   85   95 1   
    90   85   96 1   
    91   86   87 ar  
    92   86   88 ar  
    93   87   89 ar  
    94   87   97 1   
    95   88   90 ar  
    96   88   98 1   
    97   89   91 ar  
    98   89   99 1   
    99   90   91 ar  
   100   90  100 1   
   101   91   92 1   
   102   92  101 1   
   103  102  103 1   
   104  102  110 1   
   105  103  104 1   
   106  103  106 1   
   107  103  111 1   
   108  104  105 2   
   109  104  121 1   
   110  106  107 1   
   111  106  108 1   
   112  106  112 1   
   113  107  109 1   
   114  107  113 1   
   115  107  114 1   
   116  108  115 1   
   117  108  116 1   
   118  108  117 1   
   119  109  118 1   
   120  109  119 1   
   121  109  120 1   
   122  121  122 1   
   123  121  127 1   
   124  122  123 1   
   125  122  125 1   
   126  122  128 1   
   127  123  124 2   
   128  123  132 1   
   129  125  126 1   
   130  125  129 1   
   131  125  130 1   
   132  126  131 1   
   133  132  133 1   
   134  132  137 1   
   135  133  134 1   
   136  133  136 1   
   137  133  138 1   
   138  134  135 2   
   139  134  142 1   
   140  136  139 1   
   141  136  140 1   
   142  136  141 1   
   143  142  143 1   
   144  142  147 1   
   145  143  144 1   
   146  143  146 1   
   147  143  148 1   
   148  144  145 2   
   149  144  152 1   
   150  146  149 1   
   151  146  150 1   
   152  146  151 1   
   153  152  153 1   
   154  152  161 1   
   155  153  154 1   
   156  153  156 1   
   157  153  162 1   
   158  154  155 2   
   159  154  167 1   
   160  156  157 1   
   161  156  163 1   
   162  156  164 1   
   163  157  158 1   
   164  157  165 1   
   165  157  166 1   
   166  158  159 1   
   167  158  160 1   
   168  167  168 1   
   169  167  172 1   
   170  168  169 1   
   171  168  170 1   
   172  168  171 1   
   173  174  175 1   
   174  174  176 1   
   175  177  178 1   
   176  177  179 1   
@<TRIPOS>SUBSTRUCTURE
     1 MOL         1 TEMP              0 ****  ****    0 ROOT
