@<TRIPOS>MOLECULE
MOL
  175   173     1     0     0
SMALL
resp


@<TRIPOS>ATOM
      1 C1          0.8010    3.2650    5.6720 c3        1 MOL     -0.401735
      2 C2          0.1600    3.4680    4.2900 c         1 MOL      0.687920
      3 O1          0.8900    3.8440    3.3650 o         1 MOL     -0.529396
      4 H1          0.1040    3.5880    6.4470 hc        1 MOL      0.098206
      5 H2          1.0350    2.2100    5.8130 hc        1 MOL      0.098206
      6 H3          1.7160    3.8530    5.7390 hc        1 MOL      0.098206
      7 N1         -1.1280    3.2570    4.0970 n         1 MOL     -0.622541
      8 C3         -1.8830    3.1860    2.8280 c3        1 MOL      0.271981
      9 C4         -1.8610    4.5120    1.9860 c         1 MOL      0.416746
     10 O2         -1.4210    5.5820    2.4320 o         1 MOL     -0.542507
     11 C5         -3.2590    2.6620    3.1150 c3        1 MOL     -0.228525
     12 C6         -4.0990    2.4910    1.8150 c         1 MOL      0.641111
     13 O3         -5.2400    3.0050    1.7120 o         1 MOL     -0.658653
     14 O4         -3.5940    1.9450    0.8030 o         1 MOL     -0.658653
     15 H4         -1.6120    2.9820    4.9400 hn        1 MOL      0.292981
     16 H5         -1.3550    2.4710    2.1880 h1        1 MOL      0.068044
     17 H6         -3.8180    3.3150    3.7800 hc        1 MOL      0.030102
     18 H7         -3.2210    1.6870    3.5990 hc        1 MOL      0.030102
     19 N2         -2.1820    4.4720    0.6940 n         1 MOL     -0.324605
     20 C7         -2.3810    5.5190   -0.3020 c3        1 MOL      0.275288
     21 C8         -3.5790    5.3420   -1.3010 c         1 MOL      0.384923
     22 O5         -3.7110    6.1380   -2.2160 o         1 MOL     -0.530676
     23 C9         -1.0480    5.7130   -1.0960 c3        1 MOL     -0.373058
     24 H8         -2.2750    3.5270    0.3580 hn        1 MOL      0.318612
     25 H9         -2.6410    6.4330    0.2360 h1        1 MOL      0.007226
     26 H10        -0.2160    5.4430   -0.4360 hc        1 MOL      0.097934
     27 H11        -0.9770    4.9530   -1.8760 hc        1 MOL      0.097934
     28 H12        -0.9260    6.6920   -1.5610 hc        1 MOL      0.097934
     29 N3         -4.3950    4.2790   -1.0990 n         1 MOL     -0.208469
     30 C10        -5.3460    3.7570   -2.1600 c3        1 MOL     -0.073593
     31 C11        -6.5180    2.8620   -1.7610 c         1 MOL      0.442959
     32 O6         -7.4540    2.7580   -2.5260 o         1 MOL     -0.534966
     33 C12        -4.4610    3.0200   -3.1650 c3        1 MOL     -0.120356
     34 C13        -3.5320    1.9640   -2.5690 c         1 MOL      0.678276
     35 O7         -2.3280    2.1780   -2.5990 o         1 MOL     -0.689270
     36 O8         -4.0210    0.9600   -1.9950 o         1 MOL     -0.689270
     37 H13        -4.3540    3.7950   -0.2110 hn        1 MOL      0.044342
     38 H14        -5.6580    4.6560   -2.6900 h1        1 MOL      0.098035
     39 H15        -3.7180    3.6720   -3.6180 hc        1 MOL      0.045450
     40 H16        -5.0270    2.5350   -3.9580 hc        1 MOL      0.045450
     41 N4         -6.4750    2.2000   -0.5550 n         1 MOL     -0.193064
     42 C14        -7.5290    1.2510   -0.1600 c3        1 MOL     -0.318902
     43 C15        -7.4630   -0.1820   -0.7130 c         1 MOL      0.627447
     44 O9         -8.4210   -0.8990   -0.5820 o         1 MOL     -0.635115
     45 H17        -5.6690    2.3470    0.0390 hn        1 MOL      0.300798
     46 H18        -8.5380    1.5630   -0.4180 h1        1 MOL      0.122948
     47 H19        -7.4390    1.1460    0.9250 h1        1 MOL      0.122948
     48 N5         -6.3700   -0.6640   -1.3220 n         1 MOL     -0.195917
     49 C16        -6.2990   -2.0120   -1.9810 c3        1 MOL     -0.135272
     50 C17        -6.1820   -3.2960   -1.0960 c         1 MOL      0.558265
     51 O10        -6.0590   -4.3880   -1.6350 o         1 MOL     -0.535278
     52 C18        -5.2520   -1.9720   -3.1960 c3        1 MOL     -0.061904
     53 C19        -3.7590   -2.1160   -2.7090 c         1 MOL      0.370239
     54 N6         -2.8950   -2.3490   -3.5860 n         1 MOL     -0.556157
     55 O11        -3.3950   -1.9830   -1.5650 o         1 MOL     -0.356130
     56 H20        -5.5490   -0.0860   -1.1950 hn        1 MOL      0.121932
     57 H21        -7.2160   -2.2060   -2.5450 h1        1 MOL      0.121205
     58 H22        -5.2820   -1.0910   -3.8360 hc        1 MOL      0.041617
     59 H23        -5.3980   -2.8090   -3.8800 hc        1 MOL      0.041617
     60 H24        -3.2640   -2.2470   -4.5290 hn        1 MOL      0.313926
     61 H25        -1.9180   -2.3140   -3.3290 hn        1 MOL      0.313926
     62 N7         -6.3100   -3.1100    0.2130 n         1 MOL     -0.404303
     63 C20        -6.2620   -4.1260    1.2750 c3        1 MOL     -0.084862
     64 C21        -4.9370   -4.6120    1.6790 c         1 MOL      0.452663
     65 O12        -4.8470   -5.5140    2.4920 o         1 MOL     -0.549153
     66 H26        -6.3040   -2.1180    0.4270 hn        1 MOL      0.282338
     67 H27        -6.8820   -4.9680    0.9760 h1        1 MOL      0.101783
     68 H28        -6.7660   -3.8460    2.2120 h1        1 MOL      0.101783
     69 N8         -3.8450   -3.9310    1.1690 n         1 MOL     -0.087850
     70 C22        -2.4660   -4.5100    1.2120 c3        1 MOL     -0.399832
     71 C23        -1.4010   -3.4230    1.1770 c         1 MOL      0.797609
     72 O13        -1.5330   -2.4070    0.4820 o         1 MOL     -0.666187
     73 C24        -2.2450   -5.5210    0.0250 c3        1 MOL      0.530400
     74 C25        -3.2170   -6.6400   -0.0790 c3        1 MOL     -0.385057
     75 O14        -2.2930   -4.9270   -1.2390 oh        1 MOL     -0.606562
     76 H29        -4.0030   -2.9980    0.8220 hn        1 MOL      0.077145
     77 H30        -2.3480   -5.0160    2.1770 h1        1 MOL      0.103284
     78 H31        -1.2840   -6.0050    0.1790 h1        1 MOL     -0.047073
     79 H32        -2.0020   -4.0120   -1.2410 ho        1 MOL      0.370118
     80 H33        -2.7740   -7.4690   -0.6320 hc        1 MOL      0.097263
     81 H34        -3.5110   -7.0390    0.9040 hc        1 MOL      0.097263
     82 H35        -4.1800   -6.3650   -0.5030 hc        1 MOL      0.097263
     83 N9         -0.2780   -3.7300    1.8370 n         1 MOL     -0.654838
     84 C26         0.9370   -2.9480    1.8420 c3        1 MOL     -0.059681
     85 C27         1.7050   -3.1610    0.5310 c         1 MOL      0.649668
     86 O15         2.2080   -4.2510    0.2080 o         1 MOL     -0.611060
     87 C28         1.8220   -3.1130    3.1270 c3        1 MOL      0.064734
     88 C29         1.1030   -2.7920    4.4500 c3        1 MOL      0.127380
     89 C30         3.1260   -2.3920    3.0060 c3        1 MOL     -0.085044
     90 C31         1.9070   -3.1770    5.6830 c3        1 MOL     -0.134205
     91 H36        -0.1930   -4.5410    2.4290 hn        1 MOL      0.362510
     92 H37         0.7330   -1.8710    1.8990 h1        1 MOL      0.059471
     93 H38         2.0040   -4.1870    3.1440 hc        1 MOL     -0.011060
     94 H39         0.2050   -3.4030    4.5180 hc        1 MOL     -0.023106
     95 H40         0.8220   -1.7480    4.5790 hc        1 MOL     -0.023106
     96 H41         2.9220   -1.3270    2.9350 hc        1 MOL      0.016615
     97 H42         3.8140   -2.5770    3.8290 hc        1 MOL      0.016615
     98 H43         3.6890   -2.7780    2.1490 hc        1 MOL      0.016615
     99 H44         2.8160   -2.5830    5.7800 hc        1 MOL      0.022594
    100 H45         1.3450   -3.0050    6.6070 hc        1 MOL      0.022594
    101 H46         2.0490   -4.2500    5.6380 hc        1 MOL      0.022594
    102 N10         1.8080   -2.0580   -0.1850 n         1 MOL     -0.265679
    103 C32         2.5880   -1.9880   -1.4270 c3        1 MOL     -0.073117
    104 C33         3.9930   -1.4730   -1.0600 c         1 MOL      0.459007
    105 O16         4.2600   -0.8810   -0.0120 o         1 MOL     -0.277225
    106 C34         1.8860   -1.0790   -2.4700 c3        1 MOL     -0.275332
    107 C35         0.3820   -1.3630   -2.8030 c         1 MOL      0.741735
    108 O17        -0.0320   -1.8730   -3.8420 o         1 MOL     -0.670812
    109 O18        -0.4320   -0.6950   -2.1230 o         1 MOL     -0.670812
    110 H47         1.2220   -1.3130    0.1560 hn        1 MOL      0.236908
    111 H48         2.7350   -3.0200   -1.7240 h1        1 MOL      0.102601
    112 H49         2.3960   -1.0930   -3.4300 hc        1 MOL      0.080122
    113 H50         2.0270   -0.0640   -2.0820 hc        1 MOL      0.080122
    114 N11         5.0640   -1.6160   -1.9080 n         1 MOL     -0.645648
    115 C36         6.4910   -1.2970   -1.6460 c3        1 MOL      0.343300
    116 C37         6.7260    0.1520   -1.2940 c         1 MOL      0.314870
    117 O19         7.4070    0.3390   -0.3120 o         1 MOL     -0.464861
    118 C38         7.4620   -1.8300   -2.6360 c3        1 MOL     -0.171357
    119 C39         8.8690   -1.6350   -2.1410 ca        1 MOL     -0.017759
    120 C40         9.6440   -0.4920   -2.4750 ca        1 MOL     -0.115988
    121 C41         9.3370   -2.5020   -1.1380 ca        1 MOL     -0.115988
    122 C42        10.9710   -0.4270   -2.0510 ca        1 MOL     -0.034523
    123 C43        10.6700   -2.4010   -0.7300 ca        1 MOL     -0.034523
    124 C44        11.4910   -1.3900   -1.2190 ca        1 MOL     -0.221948
    125 H51         4.8920   -1.9550   -2.8510 hn        1 MOL      0.302306
    126 H52         6.6540   -1.8400   -0.7240 h1        1 MOL      0.066141
    127 H53         7.1950   -1.3280   -3.5640 hc        1 MOL      0.066996
    128 H54         7.3740   -2.8980   -2.8250 hc        1 MOL      0.066996
    129 H55         9.2590    0.2000   -3.2180 ha        1 MOL      0.099047
    130 H56         8.7110   -3.3110   -0.7960 ha        1 MOL      0.099047
    131 H57        11.6270    0.3490   -2.4060 ha        1 MOL      0.083268
    132 H58        10.9850   -3.1710   -0.0380 ha        1 MOL      0.083268
    133 H59        12.4680   -1.2310   -0.7860 ha        1 MOL      0.129178
    134 N12         6.1460    1.1760   -1.9850 n         1 MOL     -0.045478
    135 C45         6.2490    2.6050   -1.5290 c3        1 MOL     -0.110474
    136 C46         5.6010    2.9950   -0.1740 c         1 MOL      0.344626
    137 O20         5.8460    4.0090    0.4950 o         1 MOL     -0.504421
    138 C47         5.5900    3.4640   -2.6660 c3        1 MOL     -0.039622
    139 C48         5.6970    2.5210   -3.8670 c3        1 MOL      0.063413
    140 C49         5.5040    1.1310   -3.3060 c3        1 MOL     -0.154304
    141 H60         7.2900    2.9430   -1.4390 h1        1 MOL      0.093134
    142 H61         4.5470    3.5200   -2.3740 hc        1 MOL      0.047262
    143 H62         5.9940    4.4670   -2.8050 hc        1 MOL      0.047262
    144 H63         5.0630    2.8640   -4.6900 hc        1 MOL      0.007186
    145 H64         6.6770    2.5500   -4.3400 hc        1 MOL      0.007186
    146 H65         4.4280    0.9840   -3.1570 h1        1 MOL      0.073645
    147 H66         5.8040    0.3970   -4.0460 h1        1 MOL      0.073645
    148 N13         4.8270    2.0450    0.3690 n         1 MOL     -0.032131
    149 C50         4.1230    2.0640    1.6910 c3        1 MOL     -0.269061
    150 C51         5.0090    1.3580    2.7080 c         1 MOL      0.590604
    151 O21         5.2040    1.7730    3.8520 o         1 MOL     -0.561512
    152 C52         2.7840    1.3890    1.5080 c3        1 MOL      0.045750
    153 C53         1.8200    1.9610    0.4110 c3        1 MOL     -0.058993
    154 C54         0.4810    1.3590    0.4390 c         1 MOL      0.576621
    155 O22        -0.5220    2.0490    0.0380 o         1 MOL     -0.696190
    156 O23         0.2620    0.1850    0.9050 o         1 MOL     -0.696190
    157 H67         4.6640    1.2040   -0.1580 hn        1 MOL      0.092699
    158 H68         4.0130    3.1080    1.9540 h1        1 MOL      0.139077
    159 H69         2.3010    1.4780    2.4710 hc        1 MOL      0.031089
    160 H70         2.9630    0.3330    1.3160 hc        1 MOL      0.031089
    161 H71         2.1060    1.7920   -0.6290 hc        1 MOL      0.059748
    162 H72         1.7360    3.0470    0.4800 hc        1 MOL      0.059748
    163 N14         5.5640    0.1480    2.3810 n         1 MOL     -0.171007
    164 C55         6.5970   -0.4910    3.2300 c3        1 MOL     -0.276608
    165 H73         6.3250   -0.3770    4.2790 h1        1 MOL      0.101970
    166 H74         6.6620   -1.5510    2.9860 h1        1 MOL      0.101970
    167 H75         7.5600   -0.0160    3.0500 h1        1 MOL      0.101970
    168 H76         5.3790   -0.2590    1.4800 hn        1 MOL      0.100401
    169 Ca1        -2.1230    0.1460   -0.4600 Ca        1 MOL      1.601241
    170 O24        -1.7800   -0.3970    2.4320 oh        1 MOL     -0.710846
    171 H77        -0.8840   -0.2350    2.1520 ho        1 MOL      0.359716
    172 H78        -1.7760   -0.2420    3.3720 ho        1 MOL      0.359716
    173 O25        -4.0700   -0.9940    1.3630 oh        1 MOL     -0.710846
    174 H79        -3.3870   -0.8530    2.0220 ho        1 MOL      0.359716
    175 H80        -4.8580   -0.6040    1.7540 ho        1 MOL      0.359716
@<TRIPOS>BOND
     1    1    2 1   
     2    1    4 1   
     3    1    5 1   
     4    1    6 1   
     5    2    3 2   
     6    2    7 1   
     7    7    8 1   
     8    7   15 1   
     9    8    9 1   
    10    8   11 1   
    11    8   16 1   
    12    9   10 2   
    13    9   19 1   
    14   11   12 1   
    15   11   17 1   
    16   11   18 1   
    17   12   13 1   
    18   12   14 1   
    19   19   20 1   
    20   19   24 1   
    21   20   21 1   
    22   20   23 1   
    23   20   25 1   
    24   21   22 2   
    25   21   29 1   
    26   23   26 1   
    27   23   27 1   
    28   23   28 1   
    29   29   30 1   
    30   29   37 1   
    31   30   31 1   
    32   30   33 1   
    33   30   38 1   
    34   31   32 2   
    35   31   41 1   
    36   33   34 1   
    37   33   39 1   
    38   33   40 1   
    39   34   35 1   
    40   34   36 1   
    41   41   42 1   
    42   41   45 1   
    43   42   43 1   
    44   42   46 1   
    45   42   47 1   
    46   43   44 2   
    47   43   48 1   
    48   48   49 1   
    49   48   56 1   
    50   49   50 1   
    51   49   52 1   
    52   49   57 1   
    53   50   51 2   
    54   50   62 1   
    55   52   53 1   
    56   52   58 1   
    57   52   59 1   
    58   53   54 1   
    59   53   55 2   
    60   54   60 1   
    61   54   61 1   
    62   62   63 1   
    63   62   66 1   
    64   63   64 1   
    65   63   67 1   
    66   63   68 1   
    67   64   65 2   
    68   64   69 1   
    69   69   70 1   
    70   69   76 1   
    71   70   71 1   
    72   70   73 1   
    73   70   77 1   
    74   71   72 2   
    75   71   83 1   
    76   73   74 1   
    77   73   75 1   
    78   73   78 1   
    79   74   80 1   
    80   74   81 1   
    81   74   82 1   
    82   75   79 1   
    83   83   84 1   
    84   83   91 1   
    85   84   85 1   
    86   84   87 1   
    87   84   92 1   
    88   85   86 2   
    89   85  102 1   
    90   87   88 1   
    91   87   89 1   
    92   87   93 1   
    93   88   90 1   
    94   88   94 1   
    95   88   95 1   
    96   89   96 1   
    97   89   97 1   
    98   89   98 1   
    99   90   99 1   
   100   90  100 1   
   101   90  101 1   
   102  102  103 1   
   103  102  110 1   
   104  103  104 1   
   105  103  106 1   
   106  103  111 1   
   107  104  105 2   
   108  104  114 1   
   109  106  107 1   
   110  106  112 1   
   111  106  113 1   
   112  107  108 1   
   113  107  109 1   
   114  114  115 1   
   115  114  125 1   
   116  115  116 1   
   117  115  118 1   
   118  115  126 1   
   119  116  117 2   
   120  116  134 1   
   121  118  119 1   
   122  118  127 1   
   123  118  128 1   
   124  119  120 ar  
   125  119  121 ar  
   126  120  122 ar  
   127  120  129 1   
   128  121  123 ar  
   129  121  130 1   
   130  122  124 ar  
   131  122  131 1   
   132  123  124 ar  
   133  123  132 1   
   134  124  133 1   
   135  134  135 1   
   136  134  140 1   
   137  135  136 1   
   138  135  138 1   
   139  135  141 1   
   140  136  137 2   
   141  136  148 1   
   142  138  139 1   
   143  138  142 1   
   144  138  143 1   
   145  139  140 1   
   146  139  144 1   
   147  139  145 1   
   148  140  146 1   
   149  140  147 1   
   150  148  149 1   
   151  148  157 1   
   152  149  150 1   
   153  149  152 1   
   154  149  158 1   
   155  150  151 2   
   156  150  163 1   
   157  152  153 1   
   158  152  159 1   
   159  152  160 1   
   160  153  154 1   
   161  153  161 1   
   162  153  162 1   
   163  154  155 1   
   164  154  156 1   
   165  163  164 1   
   166  163  168 1   
   167  164  165 1   
   168  164  166 1   
   169  164  167 1   
   170  170  171 1   
   171  170  172 1   
   172  173  174 1   
   173  173  175 1   
@<TRIPOS>SUBSTRUCTURE
     1 MOL         1 TEMP              0 ****  ****    0 ROOT
