@<TRIPOS>MOLECULE
MOL
  179   176     1     0     0
SMALL
resp


@<TRIPOS>ATOM
      1 C1          1.5130    4.1120    4.0650 c3        1 MOL     -0.382006
      2 C2          0.8530    3.4240    2.8370 c         1 MOL      0.785143
      3 O1          1.4380    3.5580    1.7900 o         1 MOL     -0.621847
      4 H1          0.7370    4.4290    4.7630 hc        1 MOL      0.090373
      5 H2          2.1800    3.4080    4.5620 hc        1 MOL      0.090373
      6 H3          2.0810    4.9810    3.7340 hc        1 MOL      0.090373
      7 N1         -0.2020    2.6460    2.9800 n         1 MOL     -0.548720
      8 C3         -1.1680    2.2230    1.9250 c3        1 MOL     -0.007221
      9 C4         -2.0060    3.4840    1.6380 c         1 MOL      0.628578
     10 O2         -3.0500    3.7410    2.2370 o         1 MOL     -0.541938
     11 C5         -2.0040    1.0280    2.4980 c3        1 MOL     -0.132843
     12 C6         -2.8900    0.4620    1.3900 c         1 MOL      0.690415
     13 O3         -4.0290    0.0660    1.6840 o         1 MOL     -0.738362
     14 O4         -2.4830    0.4390    0.2340 o         1 MOL     -0.738362
     15 H4         -0.6920    2.7910    3.8530 hn        1 MOL      0.292459
     16 H5         -0.6550    1.8700    1.0350 h1        1 MOL      0.169481
     17 H6         -2.4370    1.2990    3.4560 hc        1 MOL      0.045892
     18 H7         -1.2920    0.2390    2.7470 hc        1 MOL      0.045892
     19 N2         -1.5460    4.3250    0.7100 n         1 MOL     -0.766959
     20 C7         -2.1890    5.6660    0.2740 c3        1 MOL      0.304002
     21 C8         -3.3190    5.3860   -0.7260 c         1 MOL      0.305277
     22 O5         -4.3330    6.0990   -0.7820 o         1 MOL     -0.527989
     23 C9         -1.1020    6.6420   -0.0580 c3        1 MOL     -0.053603
     24 C10        -1.5230    8.1210   -0.3480 c3        1 MOL     -0.423886
     25 C11        -2.3310    8.6760    0.8150 c3        1 MOL      0.104093
     26 C12        -2.4380   10.2240    0.8420 c3        1 MOL     -0.037140
     27 N3         -3.2560   10.7010    2.0220 n4        1 MOL     -0.289313
     28 H8         -0.6900    4.1560    0.2190 hn        1 MOL      0.389354
     29 H9         -2.7770    6.0200    1.1290 h1        1 MOL      0.028472
     30 H10        -0.7150    6.2250   -0.9850 hc        1 MOL      0.080314
     31 H11        -0.2480    6.6290    0.6270 hc        1 MOL      0.080314
     32 H12        -2.2210    8.1920   -1.1850 hc        1 MOL      0.145067
     33 H13        -0.5890    8.6380   -0.5420 hc        1 MOL      0.145067
     34 H14        -1.9480    8.1740    1.7080 hc        1 MOL      0.024662
     35 H15        -3.3340    8.2590    0.7530 hc        1 MOL      0.024662
     36 H16        -2.8900   10.5750   -0.0810 hx        1 MOL      0.105636
     37 H17        -1.4280   10.6350    0.8510 hx        1 MOL      0.105636
     38 H18        -4.0340   10.0990    2.2540 hn        1 MOL      0.309607
     39 H19        -2.7780   10.7290    2.9120 hn        1 MOL      0.309607
     40 H20        -3.5740   11.6520    1.8890 hn        1 MOL      0.309607
     41 N4         -3.1880    4.2770   -1.5000 n         1 MOL     -0.168354
     42 C13        -4.2500    3.7880   -2.4920 c3        1 MOL     -0.063087
     43 C14        -5.3530    2.9370   -1.7780 c         1 MOL      0.399233
     44 O6         -6.4140    2.6760   -2.3210 o         1 MOL     -0.501534
     45 C15        -3.6380    3.0200   -3.5670 c3        1 MOL     -0.190168
     46 C16        -2.6560    1.9710   -3.0260 c         1 MOL      0.679511
     47 O7         -3.1260    0.8960   -2.6590 o         1 MOL     -0.660914
     48 O8         -1.3970    2.2080   -2.9760 o         1 MOL     -0.660914
     49 H21        -2.3730    3.6710   -1.5450 hn        1 MOL      0.145987
     50 H22        -4.6610    4.6860   -2.9500 h1        1 MOL      0.125175
     51 H23        -2.9980    3.6600   -4.1740 hc        1 MOL      0.061384
     52 H24        -4.4090    2.5500   -4.1710 hc        1 MOL      0.061384
     53 N5         -5.1680    2.5470   -0.4820 n         1 MOL     -0.101739
     54 C17        -6.1810    1.8800    0.2940 c3        1 MOL     -0.273916
     55 C18        -6.4870    0.4950   -0.3210 c         1 MOL      0.573114
     56 O9         -7.5500   -0.0370   -0.0520 o         1 MOL     -0.587425
     57 H25        -4.3530    2.8410    0.0460 hn        1 MOL      0.236827
     58 H26        -7.1140    2.4350    0.2140 h1        1 MOL      0.122209
     59 H27        -5.9720    1.7440    1.3630 h1        1 MOL      0.122209
     60 N6         -5.6200   -0.1270   -1.1170 n         1 MOL     -0.109631
     61 C19        -5.8530   -1.5630   -1.4020 c3        1 MOL     -0.257061
     62 C20        -5.7370   -2.6500   -0.3060 c         1 MOL      0.356093
     63 O10        -5.8870   -3.8630   -0.5150 o         1 MOL     -0.454162
     64 C21        -5.0050   -1.8970   -2.6710 c3        1 MOL     -0.179078
     65 C22        -3.6590   -2.5190   -2.4310 c         1 MOL      0.470426
     66 N7         -3.1650   -3.3260   -3.3280 n         1 MOL     -0.809374
     67 O11        -2.9770   -2.3590   -1.4040 o         1 MOL     -0.278885
     68 H28        -4.7360    0.3060   -1.3250 hn        1 MOL      0.083491
     69 H29        -6.8750   -1.6840   -1.7650 h1        1 MOL      0.172103
     70 H30        -4.9090   -1.0770   -3.3840 hc        1 MOL      0.110112
     71 H31        -5.5710   -2.6630   -3.1960 hc        1 MOL      0.110112
     72 H32        -3.7290   -3.8520   -3.9840 hn        1 MOL      0.367738
     73 H33        -2.2160   -3.6560   -3.2680 hn        1 MOL      0.367738
     74 N8         -5.4500   -2.2550    0.9470 n         1 MOL     -0.173452
     75 C23        -5.1930   -3.2790    2.0070 c3        1 MOL     -0.458024
     76 C24        -3.8630   -3.9260    2.1590 c         1 MOL      0.745844
     77 O12        -3.7410   -4.8610    2.9840 o         1 MOL     -0.580904
     78 H34        -5.2170   -1.2870    1.1310 hn        1 MOL      0.335582
     79 H35        -5.8390   -4.1350    1.8380 h1        1 MOL      0.174222
     80 H36        -5.5050   -2.7920    2.9310 h1        1 MOL      0.174222
     81 N9         -2.8390   -3.5130    1.3670 n         1 MOL     -0.579333
     82 C25        -1.3910   -4.0390    1.4930 c3        1 MOL      0.025614
     83 C26        -0.4470   -2.8800    1.3760 c         1 MOL      0.700411
     84 O13        -0.5820   -2.0140    0.5230 o         1 MOL     -0.746683
     85 C27        -1.1720   -5.0940    0.4790 c3        1 MOL     -0.004088
     86 C28        -2.2510   -6.2330    0.4640 ca        1 MOL     -0.248677
     87 C29        -2.1750   -7.1960    1.5480 ca        1 MOL      0.085378
     88 C30        -3.2550   -6.2420   -0.4770 ca        1 MOL      0.085378
     89 C31        -3.1500   -8.2690    1.5000 ca        1 MOL     -0.466767
     90 C32        -4.1960   -7.3240   -0.4960 ca        1 MOL     -0.466767
     91 C33        -4.2220   -8.2790    0.5110 ca        1 MOL      0.529986
     92 O14        -5.2990   -9.1480    0.5670 oh        1 MOL     -0.506650
     93 H37        -3.0200   -2.7310    0.7560 hn        1 MOL      0.389603
     94 H38        -1.1770   -4.5020    2.4630 h1        1 MOL      0.066857
     95 H39        -0.2400   -5.5470    0.8140 hc        1 MOL      0.028510
     96 H40        -1.2530   -4.6220   -0.5070 hc        1 MOL      0.028510
     97 H41        -1.3650   -7.1300    2.2530 ha        1 MOL      0.110953
     98 H42        -3.3040   -5.5380   -1.2950 ha        1 MOL      0.110953
     99 H43        -3.2180   -9.0570    2.2320 ha        1 MOL      0.175449
    100 H44        -4.8970   -7.2780   -1.3140 ha        1 MOL      0.175449
    101 H45        -5.1360   -9.7850    1.2650 ho        1 MOL      0.353261
    102 N10         0.6070   -2.8860    2.1430 n         1 MOL     -0.577685
    103 C34         1.8690   -2.0350    1.9670 c3        1 MOL      0.097476
    104 C35         2.9410   -2.8420    1.2790 c         1 MOL      0.559201
    105 O15         3.0990   -4.0060    1.6530 o         1 MOL     -0.575919
    106 C36         2.4170   -1.6120    3.3490 c3        1 MOL      0.043571
    107 C37         1.4530   -0.6340    4.0940 c3        1 MOL      0.187072
    108 C38         3.7570   -0.8820    3.3130 c3        1 MOL     -0.086963
    109 C39         1.7190   -0.4080    5.5880 c3        1 MOL     -0.227250
    110 H46         0.6600   -3.6040    2.8500 hn        1 MOL      0.321799
    111 H47         1.6750   -1.1940    1.3060 h1        1 MOL      0.130842
    112 H48         2.5480   -2.5160    3.9440 hc        1 MOL      0.021233
    113 H49         0.4530   -1.0630    4.0110 hc        1 MOL     -0.046712
    114 H50         1.3360    0.3270    3.5970 hc        1 MOL     -0.046712
    115 H51         4.0940   -0.5970    4.3090 hc        1 MOL      0.003866
    116 H52         4.5850   -1.4700    2.9010 hc        1 MOL      0.003866
    117 H53         3.6830    0.0920    2.8140 hc        1 MOL      0.003866
    118 H54         2.5520    0.2850    5.7350 hc        1 MOL      0.050314
    119 H55         0.9150    0.1660    6.0480 hc        1 MOL      0.050314
    120 H56         1.8220   -1.3470    6.1220 hc        1 MOL      0.050314
    121 N11         3.6500   -2.2340    0.3380 n         1 MOL     -0.311242
    122 C40         4.7590   -2.9660   -0.2830 c3        1 MOL      0.139415
    123 C41         6.1210   -2.4400    0.1660 c         1 MOL      0.483729
    124 O16         6.2860   -1.4670    0.8950 o         1 MOL     -0.412463
    125 C42         4.6060   -2.8050   -1.8020 c3        1 MOL     -0.416078
    126 O17         4.5600   -1.4210   -2.1320 oh        1 MOL     -0.294845
    127 H57         3.4740   -1.2750    0.0640 hn        1 MOL      0.159472
    128 H58         4.7390   -4.0290   -0.0460 h1        1 MOL      0.063012
    129 H59         3.6470   -3.2520   -2.0650 h1        1 MOL      0.156539
    130 H60         5.4030   -3.3610   -2.3040 h1        1 MOL      0.156539
    131 H61         4.2150   -1.2730   -3.0170 ho        1 MOL      0.359030
    132 N12         7.2160   -2.9810   -0.4220 n         1 MOL     -0.591486
    133 C43         8.4900   -2.4030   -0.2310 c3        1 MOL      0.282367
    134 C44         8.5860   -1.0030   -0.8370 c         1 MOL      0.397199
    135 O18         9.0940   -0.1310   -0.2390 o         1 MOL     -0.492561
    136 C45         9.5620   -3.2840   -0.9220 c3        1 MOL     -0.270425
    137 H62         7.1950   -3.7830   -1.0310 hn        1 MOL      0.336104
    138 H63         8.8100   -2.2510    0.8030 h1        1 MOL      0.048558
    139 H64        10.5570   -2.8480   -0.8100 hc        1 MOL      0.070276
    140 H65         9.6370   -4.2740   -0.4860 hc        1 MOL      0.070276
    141 H66         9.1620   -3.4240   -1.9220 hc        1 MOL      0.070276
    142 N13         7.9650   -0.7370   -1.9920 n         1 MOL     -0.334360
    143 C46         7.9570    0.5580   -2.6320 c3        1 MOL      0.108164
    144 C47         7.1990    1.5780   -1.8160 c         1 MOL      0.370323
    145 O19         7.7220    2.6350   -1.6550 o         1 MOL     -0.520802
    146 C48         7.4490    0.4350   -4.0770 c3        1 MOL     -0.210631
    147 H67         7.4900   -1.5210   -2.4130 hn        1 MOL      0.223477
    148 H68         8.9930    0.8830   -2.7170 h1        1 MOL      0.084251
    149 H69         6.9460    1.3580   -4.3520 hc        1 MOL      0.045380
    150 H70         8.2000    0.0400   -4.7550 hc        1 MOL      0.045380
    151 H71         6.5930   -0.2510   -4.0070 hc        1 MOL      0.045380
    152 N14         6.0700    1.2320   -1.3030 n         1 MOL      0.124931
    153 C49         5.2280    2.2090   -0.5450 c3        1 MOL     -0.290994
    154 C50         5.8960    2.6460    0.8220 c         1 MOL      0.474880
    155 O20         5.9180    3.8280    1.0700 o         1 MOL     -0.541951
    156 C51         3.8560    1.6450   -0.4480 c3        1 MOL      0.055090
    157 C52         3.0780    1.5970   -1.7310 c3        1 MOL     -0.033604
    158 C53         1.8250    0.7670   -1.5610 c         1 MOL      0.919825
    159 O21         0.8700    1.0760   -0.8700 o         1 MOL     -0.867760
    160 O22         1.7880   -0.3730   -2.1550 o         1 MOL     -0.867760
    161 H72         5.6640    0.3110   -1.4040 hn        1 MOL      0.023658
    162 H73         5.1730    3.1930   -1.0180 h1        1 MOL      0.134212
    163 H74         3.2920    2.3290    0.1820 hc        1 MOL      0.046193
    164 H75         3.8530    0.6500   -0.0150 hc        1 MOL      0.046193
    165 H76         3.7600    1.1060   -2.4260 hc        1 MOL     -0.033691
    166 H77         2.7670    2.5340   -2.1790 hc        1 MOL     -0.033691
    167 N15         6.5100    1.7280    1.4830 n         1 MOL     -0.070498
    168 C54         7.4520    2.0210    2.5870 c3        1 MOL     -0.292201
    169 H78         6.8920    2.1990    3.5050 h1        1 MOL      0.116872
    170 H79         8.1200    1.1720    2.7310 h1        1 MOL      0.116872
    171 H80         8.0380    2.9060    2.3410 h1        1 MOL      0.116872
    172 H81         6.5410    0.8180    1.0540 hn        1 MOL      0.115055
    173 Ca1        -1.0790   -0.5950   -1.6430 Ca        1 MOL      1.744805
    174 O23        -0.7240   -0.6170   -4.2240 oh        1 MOL     -0.864461
    175 H82        -0.7470   -1.4390   -4.7070 ho        1 MOL      0.419815
    176 H83        -0.2920    0.0010   -4.8230 ho        1 MOL      0.419815
    177 O24        -0.3930   -3.1670   -2.4560 oh        1 MOL     -0.864461
    178 H84         0.1750   -3.8140   -2.0330 ho        1 MOL      0.419815
    179 H85         0.0400   -3.0020   -3.2990 ho        1 MOL      0.419815
@<TRIPOS>BOND
     1    1    2 1   
     2    1    4 1   
     3    1    5 1   
     4    1    6 1   
     5    2    3 2   
     6    2    7 1   
     7    7    8 1   
     8    7   15 1   
     9    8    9 1   
    10    8   11 1   
    11    8   16 1   
    12    9   10 2   
    13    9   19 1   
    14   11   12 1   
    15   11   17 1   
    16   11   18 1   
    17   12   13 1   
    18   12   14 1   
    19   19   20 1   
    20   19   28 1   
    21   20   21 1   
    22   20   23 1   
    23   20   29 1   
    24   21   22 2   
    25   21   41 1   
    26   23   24 1   
    27   23   30 1   
    28   23   31 1   
    29   24   25 1   
    30   24   32 1   
    31   24   33 1   
    32   25   26 1   
    33   25   34 1   
    34   25   35 1   
    35   26   27 1   
    36   26   36 1   
    37   26   37 1   
    38   27   38 1   
    39   27   39 1   
    40   27   40 1   
    41   41   42 1   
    42   41   49 1   
    43   42   43 1   
    44   42   45 1   
    45   42   50 1   
    46   43   44 2   
    47   43   53 1   
    48   45   46 1   
    49   45   51 1   
    50   45   52 1   
    51   46   47 1   
    52   46   48 1   
    53   53   54 1   
    54   53   57 1   
    55   54   55 1   
    56   54   58 1   
    57   54   59 1   
    58   55   56 2   
    59   55   60 1   
    60   60   61 1   
    61   60   68 1   
    62   61   62 1   
    63   61   64 1   
    64   61   69 1   
    65   62   63 2   
    66   62   74 1   
    67   64   65 1   
    68   64   70 1   
    69   64   71 1   
    70   65   66 1   
    71   65   67 2   
    72   66   72 1   
    73   66   73 1   
    74   74   75 1   
    75   74   78 1   
    76   75   76 1   
    77   75   79 1   
    78   75   80 1   
    79   76   77 2   
    80   76   81 1   
    81   81   82 1   
    82   81   93 1   
    83   82   83 1   
    84   82   85 1   
    85   82   94 1   
    86   83   84 2   
    87   83  102 1   
    88   85   86 1   
    89   85   95 1   
    90   85   96 1   
    91   86   87 ar  
    92   86   88 ar  
    93   87   89 ar  
    94   87   97 1   
    95   88   90 ar  
    96   88   98 1   
    97   89   91 ar  
    98   89   99 1   
    99   90   91 ar  
   100   90  100 1   
   101   91   92 1   
   102   92  101 1   
   103  102  103 1   
   104  102  110 1   
   105  103  104 1   
   106  103  106 1   
   107  103  111 1   
   108  104  105 2   
   109  104  121 1   
   110  106  107 1   
   111  106  108 1   
   112  106  112 1   
   113  107  109 1   
   114  107  113 1   
   115  107  114 1   
   116  108  115 1   
   117  108  116 1   
   118  108  117 1   
   119  109  118 1   
   120  109  119 1   
   121  109  120 1   
   122  121  122 1   
   123  121  127 1   
   124  122  123 1   
   125  122  125 1   
   126  122  128 1   
   127  123  124 2   
   128  123  132 1   
   129  125  126 1   
   130  125  129 1   
   131  125  130 1   
   132  126  131 1   
   133  132  133 1   
   134  132  137 1   
   135  133  134 1   
   136  133  136 1   
   137  133  138 1   
   138  134  135 2   
   139  134  142 1   
   140  136  139 1   
   141  136  140 1   
   142  136  141 1   
   143  142  143 1   
   144  142  147 1   
   145  143  144 1   
   146  143  146 1   
   147  143  148 1   
   148  144  145 2   
   149  144  152 1   
   150  146  149 1   
   151  146  150 1   
   152  146  151 1   
   153  152  153 1   
   154  152  161 1   
   155  153  154 1   
   156  153  156 1   
   157  153  162 1   
   158  154  155 2   
   159  154  167 1   
   160  156  157 1   
   161  156  163 1   
   162  156  164 1   
   163  157  158 1   
   164  157  165 1   
   165  157  166 1   
   166  158  159 1   
   167  158  160 1   
   168  167  168 1   
   169  167  172 1   
   170  168  169 1   
   171  168  170 1   
   172  168  171 1   
   173  174  175 1   
   174  174  176 1   
   175  177  178 1   
   176  177  179 1   
@<TRIPOS>SUBSTRUCTURE
     1 MOL         1 TEMP              0 ****  ****    0 ROOT
