@<TRIPOS>MOLECULE
MOL
  189   185     1     0     0
SMALL
resp


@<TRIPOS>ATOM
      1 C1          0.1670    3.1550    5.6060 c3        1 MOL     -0.338897
      2 C2         -0.2650    2.7720    4.1330 c         1 MOL      0.677147
      3 O1          0.5010    2.8320    3.2430 o         1 MOL     -0.611116
      4 H1          0.8400    2.3910    5.9980 hc        1 MOL      0.089134
      5 H2          0.6790    4.1180    5.5970 hc        1 MOL      0.089134
      6 H3         -0.7170    3.2180    6.2400 hc        1 MOL      0.089134
      7 N1         -1.5040    2.2100    3.8590 n         1 MOL     -0.557006
      8 C3         -2.1080    1.9560    2.5710 c3        1 MOL      0.093594
      9 C4         -2.4500    3.3080    1.8860 c         1 MOL      0.456329
     10 O2         -3.1160    4.1290    2.4800 o         1 MOL     -0.570639
     11 C5         -3.4000    1.1320    2.6540 c3        1 MOL     -0.315315
     12 C6         -3.9340    0.8360    1.2300 c         1 MOL      0.896712
     13 O3         -3.1660    0.9210    0.2810 o         1 MOL     -0.742406
     14 O4         -5.0850    0.3440    1.0990 o         1 MOL     -0.742406
     15 H4         -2.1970    2.1060    4.5880 hn        1 MOL      0.306565
     16 H5         -1.2840    1.4200    2.1080 h1        1 MOL     -0.081977
     17 H6         -4.1740    1.7180    3.1570 hc        1 MOL      0.079943
     18 H7         -3.2960    0.1440    3.0970 hc        1 MOL      0.079943
     19 N2         -1.7880    3.5620    0.7480 n         1 MOL     -0.060932
     20 C7         -1.7920    4.8840    0.1810 c3        1 MOL      0.049360
     21 C8         -2.7660    4.9480   -1.0740 c         1 MOL      0.520716
     22 O5         -2.9900    6.0600   -1.4600 o         1 MOL     -0.569068
     23 C9         -0.3160    5.3880    0.0280 c3        1 MOL      0.155884
     24 C10        -0.1100    6.8540    0.0220 c3        1 MOL     -0.077811
     25 C11        -0.5510    7.5690    1.3610 c3        1 MOL     -0.257699
     26 C12         0.1610    6.9770    2.5980 c3        1 MOL      0.042098
     27 N3         -0.2890    7.6380    3.7750 n4        1 MOL     -0.342058
     28 H8         -1.1500    2.8280    0.4700 hn        1 MOL      0.189382
     29 H9         -2.3260    5.5750    0.8350 h1        1 MOL      0.007068
     30 H10         0.1370    4.9390   -0.8550 hc        1 MOL     -0.021253
     31 H11         0.2890    4.9090    0.7950 hc        1 MOL     -0.021253
     32 H12        -0.7450    7.2760   -0.7610 hc        1 MOL      0.043023
     33 H13         0.9070    7.1160   -0.2630 hc        1 MOL      0.043023
     34 H14        -1.6350    7.4710    1.4140 hc        1 MOL      0.102085
     35 H15        -0.4030    8.6280    1.1900 hc        1 MOL      0.102085
     36 H16         1.2360    7.1360    2.5020 hx        1 MOL      0.097409
     37 H17        -0.1010    5.9300    2.6700 hx        1 MOL      0.097409
     38 H18        -1.2810    7.4910    3.9060 hn        1 MOL      0.320863
     39 H19         0.2690    7.3760    4.5680 hn        1 MOL      0.320863
     40 H20        -0.1600    8.6400    3.6840 hn        1 MOL      0.320863
     41 N4         -3.2510    3.8450   -1.6510 n         1 MOL     -0.450329
     42 C13        -4.0930    3.7790   -2.8450 c3        1 MOL      0.200677
     43 C14        -5.4550    3.0590   -2.6520 c         1 MOL      0.363906
     44 O6         -6.1460    2.9580   -3.6410 o         1 MOL     -0.512610
     45 C15        -3.2890    3.3110   -4.0470 c3        1 MOL     -0.229341
     46 C16        -2.4920    2.0400   -3.8070 c         1 MOL      0.830636
     47 O7         -2.4300    1.3890   -2.7480 o         1 MOL     -0.694182
     48 O8         -1.9520    1.6210   -4.8050 o         1 MOL     -0.694182
     49 H21        -3.0290    2.9230   -1.2840 hn        1 MOL      0.151251
     50 H22        -4.4050    4.7540   -3.2240 h1        1 MOL      0.051564
     51 H23        -2.6240    4.1240   -4.3200 hc        1 MOL      0.065405
     52 H24        -3.9930    3.1040   -4.8440 hc        1 MOL      0.065405
     53 N5         -5.8540    2.5440   -1.5040 n         1 MOL     -0.250749
     54 C17        -7.2190    2.0460   -1.0930 c3        1 MOL     -0.132469
     55 C18        -7.5690    0.6160   -1.3860 c         1 MOL      0.561972
     56 O9         -8.7560    0.4070   -1.4660 o         1 MOL     -0.591936
     57 H25        -5.2100    2.7080   -0.7530 hn        1 MOL      0.203163
     58 H26        -8.0220    2.6690   -1.4810 h1        1 MOL      0.091388
     59 H27        -7.2720    2.0990   -0.0050 h1        1 MOL      0.091388
     60 N6         -6.6350   -0.2480   -1.6890 n         1 MOL     -0.163898
     61 C19        -6.8650   -1.6710   -2.0000 c3        1 MOL     -0.071598
     62 C20        -7.0180   -2.5250   -0.6600 c         1 MOL      0.442882
     63 O10        -7.4470   -3.7050   -0.6860 o         1 MOL     -0.536448
     64 C21        -5.6930   -2.2310   -2.8480 c3        1 MOL     -0.142517
     65 C22        -4.3080   -1.8800   -2.3360 c         1 MOL      0.618694
     66 O11        -3.4510   -1.7320   -3.2330 o         1 MOL     -0.661904
     67 O12        -4.1270   -1.6520   -1.1190 o         1 MOL     -0.661904
     68 H28        -5.7500   -0.0540   -1.2350 hn        1 MOL      0.111531
     69 H29        -7.7800   -1.8370   -2.5630 h1        1 MOL      0.114709
     70 H30        -5.8240   -1.8370   -3.8600 hc        1 MOL      0.054523
     71 H31        -5.8280   -3.3030   -2.9430 hc        1 MOL      0.054523
     72 N7         -6.6770   -1.9460    0.5130 n         1 MOL     -0.353974
     73 C23        -6.6820   -2.7210    1.7720 c3        1 MOL      0.035207
     74 C24        -5.5950   -3.8050    1.8620 c         1 MOL      0.434674
     75 O13        -5.7930   -4.7890    2.5540 o         1 MOL     -0.554345
     76 H32        -6.1820   -1.0620    0.5180 hn        1 MOL      0.302889
     77 H33        -7.6200   -3.2610    1.9040 h1        1 MOL      0.052863
     78 H34        -6.6710   -2.0290    2.6150 h1        1 MOL      0.052863
     79 N8         -4.4340   -3.6070    1.1880 n         1 MOL     -0.195969
     80 C25        -3.2010   -4.4800    1.2600 c3        1 MOL      0.003689
     81 C26        -1.9850   -3.5690    1.2470 c         1 MOL      0.533694
     82 O14        -2.0850   -2.3680    1.0980 o         1 MOL     -0.613345
     83 C27        -3.1530   -5.4120    0.0800 c3        1 MOL      0.307375
     84 C28        -4.2660   -6.4320    0.0320 c3        1 MOL     -0.347723
     85 O15        -3.1300   -4.7770   -1.2270 oh        1 MOL     -0.569074
     86 H35        -4.3510   -2.7940    0.6100 hn        1 MOL      0.213112
     87 H36        -3.1890   -5.0220    2.2050 h1        1 MOL      0.079200
     88 H37        -2.2500   -6.0150    0.1200 h1        1 MOL     -0.016227
     89 H38        -3.1370   -5.5030   -1.8560 ho        1 MOL      0.394753
     90 H39        -5.2010   -5.9180   -0.1910 hc        1 MOL      0.096700
     91 H40        -4.0910   -7.0240   -0.8680 hc        1 MOL      0.096700
     92 H41        -4.2180   -7.0890    0.8960 hc        1 MOL      0.096700
     93 N9         -0.8030   -4.0540    1.6330 n         1 MOL     -0.504645
     94 C29         0.4060   -3.2690    1.8450 c3        1 MOL      0.186440
     95 C30         1.4950   -3.8880    0.9070 c         1 MOL      0.359021
     96 O16         1.6920   -5.1270    0.8950 o         1 MOL     -0.545359
     97 C31         0.6690   -3.2280    3.3880 c3        1 MOL      0.040007
     98 C32        -0.3240   -2.4320    4.1890 c3        1 MOL     -0.045383
     99 C33         2.0760   -2.6850    3.7110 c3        1 MOL     -0.154617
    100 C34        -0.2920   -0.8860    3.9880 c3        1 MOL     -0.073528
    101 H42        -0.7580   -5.0060    1.9580 hn        1 MOL      0.269113
    102 H43         0.2340   -2.2580    1.4810 h1        1 MOL      0.063509
    103 H44         0.7100   -4.2660    3.6860 hc        1 MOL      0.032035
    104 H45        -0.1740   -2.7050    5.2300 hc        1 MOL      0.025499
    105 H46        -1.3620   -2.7700    4.0930 hc        1 MOL      0.025499
    106 H47         2.8730   -3.2950    3.2870 hc        1 MOL      0.012119
    107 H48         2.2360   -1.7110    3.2550 hc        1 MOL      0.012119
    108 H49         2.1500   -2.8090    4.7970 hc        1 MOL      0.012119
    109 H50         0.6280   -0.4050    4.3090 hc        1 MOL      0.048017
    110 H51        -0.5490   -0.6430    2.9470 hc        1 MOL      0.048017
    111 H52        -1.0560   -0.4470    4.6280 hc        1 MOL      0.048017
    112 N10         2.1740   -2.9920    0.2160 n         1 MOL     -0.008878
    113 C35         3.3700   -3.2760   -0.7250 c3        1 MOL     -0.031483
    114 C36         4.6890   -2.9660   -0.1320 c         1 MOL      0.391719
    115 O17         4.7840   -2.5040    1.0180 o         1 MOL     -0.382485
    116 C37         3.2620   -2.5230   -2.0590 c3        1 MOL      0.253634
    117 C38         2.0050   -3.0730   -2.8780 c3        1 MOL     -0.273575
    118 O18         3.0230   -1.1390   -1.7380 oh        1 MOL     -0.613064
    119 H53         1.9200   -2.0420    0.4300 hn        1 MOL      0.045636
    120 H54         3.4330   -4.3460   -0.9470 h1        1 MOL      0.055263
    121 H55         4.1580   -2.6330   -2.6710 h1        1 MOL      0.039537
    122 H56         2.1880   -1.0570   -1.2810 ho        1 MOL      0.385250
    123 H57         2.3990   -3.7630   -3.6180 hc        1 MOL      0.070690
    124 H58         1.3160   -3.6770   -2.2860 hc        1 MOL      0.070690
    125 H59         1.4420   -2.2940   -3.3990 hc        1 MOL      0.070690
    126 N11         5.7830   -3.2300   -0.8740 n         1 MOL     -0.293845
    127 C39         7.0510   -3.0230   -0.3610 c3        1 MOL     -0.044451
    128 C40         7.3980   -1.5440    0.0100 c         1 MOL      0.193097
    129 O19         8.0900   -1.3200    1.0270 o         1 MOL     -0.458346
    130 C41         8.1040   -3.2880   -1.4430 c3        1 MOL      0.356384
    131 C42         8.2220   -4.7800   -1.7640 c3        1 MOL     -0.532787
    132 O20         7.6510   -2.6200   -2.6260 oh        1 MOL     -0.633611
    133 H60         5.6990   -3.7500   -1.7320 hn        1 MOL      0.268791
    134 H61         7.3710   -3.6230    0.4930 h1        1 MOL      0.115541
    135 H62         9.1100   -2.9770   -1.1600 h1        1 MOL      0.043250
    136 H63         8.4360   -2.4270   -3.1480 ho        1 MOL      0.386886
    137 H64         8.5600   -5.2250   -0.8250 hc        1 MOL      0.146870
    138 H65         7.3160   -5.1520   -2.2440 hc        1 MOL      0.146870
    139 H66         9.0320   -4.9070   -2.4760 hc        1 MOL      0.146870
    140 N12         6.8410   -0.5700   -0.7480 n         1 MOL     -0.198852
    141 C43         6.9390    0.9150   -0.5630 c3        1 MOL      0.038873
    142 C44         5.9960    1.4120    0.5520 c         1 MOL      0.366703
    143 O21         6.2710    2.4240    1.1870 o         1 MOL     -0.514423
    144 C45         6.7010    1.7640   -1.8560 c3        1 MOL     -0.359723
    145 C46         8.0700    2.1380   -2.5000 c3        1 MOL      0.045277
    146 C47         7.9380    2.9950   -3.8040 c3        1 MOL      0.091647
    147 C48         9.2650    3.7320   -4.0810 c3        1 MOL     -0.222033
    148 N13        10.3170    2.8000   -4.4540 n4        1 MOL     -0.156783
    149 H67         6.4210   -0.8400   -1.6340 hn        1 MOL      0.251542
    150 H68         7.9200    1.2130   -0.1870 h1        1 MOL      0.087869
    151 H69         6.2940    2.7040   -1.5050 hc        1 MOL      0.138271
    152 H70         6.0100    1.2990   -2.5680 hc        1 MOL      0.138271
    153 H71         8.6520    1.2460   -2.7530 hc        1 MOL      0.013236
    154 H72         8.5750    2.6610   -1.6930 hc        1 MOL      0.013236
    155 H73         7.0370    3.6140   -3.8120 hc        1 MOL      0.029766
    156 H74         7.7940    2.3710   -4.6830 hc        1 MOL      0.029766
    157 H75         9.6330    4.2670   -3.2030 hx        1 MOL      0.150884
    158 H76         9.1050    4.3880   -4.9310 hx        1 MOL      0.150884
    159 H77        10.6310    2.1550   -3.7420 hn        1 MOL      0.249715
    160 H78        10.0880    2.1890   -5.2210 hn        1 MOL      0.249715
    161 H79        11.1610    3.3450   -4.5830 hn        1 MOL      0.249715
    162 N14         4.8710    0.7620    0.6970 n         1 MOL     -0.144599
    163 C49         4.0310    1.1050    1.9130 c3        1 MOL     -0.072803
    164 C50         4.5680    0.5560    3.2390 c         1 MOL      0.448309
    165 O22         4.6030    1.2310    4.2520 o         1 MOL     -0.575013
    166 C51         2.6180    0.6130    1.6930 c3        1 MOL      0.166507
    167 C52         2.0140    1.4990    0.5680 c3        1 MOL      0.007624
    168 C53         0.8100    0.7870   -0.0910 c         1 MOL      0.762248
    169 O23         0.7640   -0.4720   -0.1670 o         1 MOL     -0.744001
    170 O24        -0.0950    1.4810   -0.6420 o         1 MOL     -0.744001
    171 H80         4.6740   -0.0370    0.1140 hn        1 MOL      0.133515
    172 H81         4.0610    2.1810    2.0970 h1        1 MOL      0.087235
    173 H82         1.9940    0.7150    2.5810 hc        1 MOL      0.020145
    174 H83         2.6970   -0.4340    1.4060 hc        1 MOL      0.020145
    175 H84         2.6900    1.7760   -0.2400 hc        1 MOL     -0.028517
    176 H85         1.8100    2.4390    1.0610 hc        1 MOL     -0.028517
    177 N15         5.1200   -0.5980    3.1720 n         1 MOL     -0.007720
    178 C54         5.9420   -1.2230    4.2280 c3        1 MOL     -0.409101
    179 H86         5.5290   -2.2000    4.4780 h1        1 MOL      0.139808
    180 H87         6.9650   -1.3420    3.8700 h1        1 MOL      0.139808
    181 H88         5.9380   -0.5900    5.1150 h1        1 MOL      0.139808
    182 H89         4.8820   -1.1490    2.3620 hn        1 MOL      0.146626
    183 Ca1        -1.7770   -0.6000   -1.2360 Ca        1 MOL      1.797746
    184 O25        -1.2510   -3.1470   -1.8120 oh        1 MOL     -0.902612
    185 H90        -2.0070   -3.6900   -1.6060 ho        1 MOL      0.411008
    186 H91        -1.0010   -3.4220   -2.6990 ho        1 MOL      0.411008
    187 O26        -0.6340   -0.7380   -3.6140 oh        1 MOL     -0.902612
    188 H92        -0.9820    0.0290   -4.0430 ho        1 MOL      0.411008
    189 H93        -0.1620   -1.2020   -4.3030 ho        1 MOL      0.411008
@<TRIPOS>BOND
     1    1    2 1   
     2    1    4 1   
     3    1    5 1   
     4    1    6 1   
     5    2    3 2   
     6    2    7 1   
     7    7    8 1   
     8    7   15 1   
     9    8    9 1   
    10    8   11 1   
    11    8   16 1   
    12    9   10 2   
    13    9   19 1   
    14   11   12 1   
    15   11   17 1   
    16   11   18 1   
    17   12   13 1   
    18   12   14 1   
    19   19   20 1   
    20   19   28 1   
    21   20   21 1   
    22   20   23 1   
    23   20   29 1   
    24   21   22 2   
    25   21   41 1   
    26   23   24 1   
    27   23   30 1   
    28   23   31 1   
    29   24   25 1   
    30   24   32 1   
    31   24   33 1   
    32   25   26 1   
    33   25   34 1   
    34   25   35 1   
    35   26   27 1   
    36   26   36 1   
    37   26   37 1   
    38   27   38 1   
    39   27   39 1   
    40   27   40 1   
    41   41   42 1   
    42   41   49 1   
    43   42   43 1   
    44   42   45 1   
    45   42   50 1   
    46   43   44 2   
    47   43   53 1   
    48   45   46 1   
    49   45   51 1   
    50   45   52 1   
    51   46   47 1   
    52   46   48 1   
    53   53   54 1   
    54   53   57 1   
    55   54   55 1   
    56   54   58 1   
    57   54   59 1   
    58   55   56 2   
    59   55   60 1   
    60   60   61 1   
    61   60   68 1   
    62   61   62 1   
    63   61   64 1   
    64   61   69 1   
    65   62   63 2   
    66   62   72 1   
    67   64   65 1   
    68   64   70 1   
    69   64   71 1   
    70   65   66 1   
    71   65   67 1   
    72   72   73 1   
    73   72   76 1   
    74   73   74 1   
    75   73   77 1   
    76   73   78 1   
    77   74   75 2   
    78   74   79 1   
    79   79   80 1   
    80   79   86 1   
    81   80   81 1   
    82   80   83 1   
    83   80   87 1   
    84   81   82 2   
    85   81   93 1   
    86   83   84 1   
    87   83   85 1   
    88   83   88 1   
    89   84   90 1   
    90   84   91 1   
    91   84   92 1   
    92   85   89 1   
    93   93   94 1   
    94   93  101 1   
    95   94   95 1   
    96   94   97 1   
    97   94  102 1   
    98   95   96 2   
    99   95  112 1   
   100   97   98 1   
   101   97   99 1   
   102   97  103 1   
   103   98  100 1   
   104   98  104 1   
   105   98  105 1   
   106   99  106 1   
   107   99  107 1   
   108   99  108 1   
   109  100  109 1   
   110  100  110 1   
   111  100  111 1   
   112  112  113 1   
   113  112  119 1   
   114  113  114 1   
   115  113  116 1   
   116  113  120 1   
   117  114  115 2   
   118  114  126 1   
   119  116  117 1   
   120  116  118 1   
   121  116  121 1   
   122  117  123 1   
   123  117  124 1   
   124  117  125 1   
   125  118  122 1   
   126  126  127 1   
   127  126  133 1   
   128  127  128 1   
   129  127  130 1   
   130  127  134 1   
   131  128  129 2   
   132  128  140 1   
   133  130  131 1   
   134  130  132 1   
   135  130  135 1   
   136  131  137 1   
   137  131  138 1   
   138  131  139 1   
   139  132  136 1   
   140  140  141 1   
   141  140  149 1   
   142  141  142 1   
   143  141  144 1   
   144  141  150 1   
   145  142  143 2   
   146  142  162 1   
   147  144  145 1   
   148  144  151 1   
   149  144  152 1   
   150  145  146 1   
   151  145  153 1   
   152  145  154 1   
   153  146  147 1   
   154  146  155 1   
   155  146  156 1   
   156  147  148 1   
   157  147  157 1   
   158  147  158 1   
   159  148  159 1   
   160  148  160 1   
   161  148  161 1   
   162  162  163 1   
   163  162  171 1   
   164  163  164 1   
   165  163  166 1   
   166  163  172 1   
   167  164  165 2   
   168  164  177 1   
   169  166  167 1   
   170  166  173 1   
   171  166  174 1   
   172  167  168 1   
   173  167  175 1   
   174  167  176 1   
   175  168  169 1   
   176  168  170 1   
   177  177  178 1   
   178  177  182 1   
   179  178  179 1   
   180  178  180 1   
   181  178  181 1   
   182  184  185 1   
   183  184  186 1   
   184  187  188 1   
   185  187  189 1   
@<TRIPOS>SUBSTRUCTURE
     1 MOL         1 TEMP              0 ****  ****    0 ROOT
