@<TRIPOS>MOLECULE
MOL
  176   174     1     0     0
SMALL
resp


@<TRIPOS>ATOM
      1 C1          0.4930    3.4840    6.4040 c3        1 MOL     -0.287368
      2 C2          0.3620    3.0830    4.8820 c         1 MOL      0.700830
      3 O1          1.3470    3.1130    4.1050 o         1 MOL     -0.581386
      4 H1         -0.4810    3.4030    6.8850 hc        1 MOL      0.074601
      5 H2          1.1980    2.8140    6.8970 hc        1 MOL      0.074601
      6 H3          0.8520    4.5100    6.4810 hc        1 MOL      0.074601
      7 N1         -0.8330    2.6570    4.5370 n         1 MOL     -0.597071
      8 C3         -1.1430    2.4180    3.1130 c3        1 MOL      0.017248
      9 C4         -1.1950    3.6580    2.2300 c         1 MOL      0.694566
     10 O2         -1.7970    4.6810    2.5670 o         1 MOL     -0.562051
     11 C5         -2.3200    1.4770    3.0740 c3        1 MOL     -0.106074
     12 C6         -2.7820    0.9780    1.7080 c         1 MOL      0.400100
     13 O3         -2.5050    1.6230    0.6690 o         1 MOL     -0.548433
     14 O4         -3.3130   -0.1910    1.4660 o         1 MOL     -0.548433
     15 H4         -1.5680    2.6840    5.2310 hn        1 MOL      0.340774
     16 H5         -0.3100    1.8110    2.7470 h1        1 MOL      0.076975
     17 H6         -3.1230    2.0980    3.4810 hc        1 MOL      0.057259
     18 H7         -2.2280    0.6590    3.7970 hc        1 MOL      0.057259
     19 N2         -0.5760    3.6460    1.0040 n         1 MOL     -0.568361
     20 C7         -0.5480    4.8840    0.1690 c3        1 MOL     -0.038567
     21 C8         -1.8060    5.1160   -0.5590 c         1 MOL      0.506156
     22 O5         -2.1660    6.2560   -0.8440 o         1 MOL     -0.600746
     23 C9          0.7210    4.8720   -0.6660 c3        1 MOL      0.063304
     24 C10         0.9150    6.1650   -1.4100 c3        1 MOL      0.042320
     25 C11         2.2370    6.0590   -2.2610 c3        1 MOL     -0.063395
     26 C12         2.4740    7.3600   -3.0110 c3        1 MOL     -0.066966
     27 N3          1.3290    7.7560   -3.8350 n4        1 MOL     -0.352520
     28 H8         -0.2220    2.7730    0.6280 hn        1 MOL      0.297047
     29 H9         -0.4070    5.7960    0.7400 h1        1 MOL      0.112338
     30 H10         0.6440    4.0460   -1.3700 hc        1 MOL      0.039849
     31 H11         1.5140    4.7180    0.0660 hc        1 MOL      0.039849
     32 H12         1.0120    7.0300   -0.7560 hc        1 MOL      0.002015
     33 H13         0.0990    6.3490   -2.1090 hc        1 MOL      0.002015
     34 H14         2.1860    5.2800   -3.0200 hc        1 MOL      0.050437
     35 H15         3.0430    5.7950   -1.5810 hc        1 MOL      0.050437
     36 H16         3.3360    7.2760   -3.6590 hx        1 MOL      0.120855
     37 H17         2.8640    8.2000   -2.4230 hx        1 MOL      0.120855
     38 H18         1.1370    7.0650   -4.5450 hn        1 MOL      0.326096
     39 H19         0.4150    7.8180   -3.4040 hn        1 MOL      0.326096
     40 H20         1.5440    8.5810   -4.3840 hn        1 MOL      0.326096
     41 N4         -2.5910    4.0760   -0.8650 n         1 MOL     -0.218989
     42 C13        -3.8260    4.1560   -1.6920 c3        1 MOL      0.009767
     43 C14        -5.0520    3.7340   -0.8220 c         1 MOL      0.450598
     44 O6         -6.2190    3.7920   -1.2960 o         1 MOL     -0.548513
     45 C15        -3.6240    3.3480   -2.9620 c3        1 MOL     -0.183020
     46 C16        -3.1390    1.9260   -2.7230 c         1 MOL      0.668714
     47 O7         -3.7380    1.1310   -1.9330 o         1 MOL     -0.726295
     48 O8         -2.0020    1.5760   -3.1900 o         1 MOL     -0.726295
     49 H21        -2.2490    3.1810   -0.5510 hn        1 MOL      0.181508
     50 H22        -4.0760    5.1460   -2.0870 h1        1 MOL      0.096936
     51 H23        -2.8560    3.8910   -3.5250 hc        1 MOL      0.054001
     52 H24        -4.5640    3.2730   -3.5140 hc        1 MOL      0.054001
     53 N5         -4.8090    3.1750    0.3570 n         1 MOL     -0.311241
     54 C17        -5.7930    2.5710    1.2990 c3        1 MOL     -0.108627
     55 C18        -6.5140    1.3420    0.8460 c         1 MOL      0.564365
     56 O9         -7.5570    1.0860    1.3530 o         1 MOL     -0.598163
     57 H25        -3.8360    2.9670    0.5350 hn        1 MOL      0.211323
     58 H26        -6.6180    3.2810    1.4160 h1        1 MOL      0.095935
     59 H27        -5.4510    2.3650    2.3050 h1        1 MOL      0.095935
     60 N6         -6.0390    0.5410   -0.0850 n         1 MOL     -0.096199
     61 C19        -6.8060   -0.6760   -0.5700 c3        1 MOL     -0.279581
     62 C20        -6.7360   -1.9460    0.3260 c         1 MOL      0.504835
     63 O10        -7.4030   -2.9760    0.0850 o         1 MOL     -0.555701
     64 C21        -6.3990   -1.1350   -1.9620 c3        1 MOL     -0.038091
     65 C22        -5.0200   -1.5800   -2.0520 c         1 MOL      0.507906
     66 N7         -4.7850   -2.1020   -3.2460 n         1 MOL     -0.450317
     67 O11        -4.1300   -1.4940   -1.2550 o         1 MOL     -0.554516
     68 H28        -5.1090    0.6620   -0.4620 hn        1 MOL      0.160214
     69 H29        -7.8660   -0.4310   -0.6060 h1        1 MOL      0.169667
     70 H30        -6.6330   -0.3580   -2.6880 hc        1 MOL      0.071279
     71 H31        -7.0550   -1.9330   -2.3130 hc        1 MOL      0.071279
     72 H32        -5.5330   -2.0840   -3.9360 hn        1 MOL      0.249578
     73 H33        -3.8370   -2.3060   -3.5310 hn        1 MOL      0.249578
     74 N8         -5.9430   -1.9710    1.3950 n         1 MOL     -0.218256
     75 C23        -5.8140   -3.0820    2.3250 c3        1 MOL     -0.082776
     76 C24        -4.5310   -3.9150    2.2090 c         1 MOL      0.408259
     77 O12        -4.5760   -5.0160    2.8040 o         1 MOL     -0.568109
     78 H34        -5.3020   -1.2030    1.4860 hn        1 MOL      0.170109
     79 H35        -6.7040   -3.7030    2.3400 h1        1 MOL      0.096418
     80 H36        -5.7700   -2.6090    3.3110 h1        1 MOL      0.096418
     81 N9         -3.4700   -3.5520    1.5010 n         1 MOL      0.121289
     82 C25        -2.1740   -4.2620    1.6760 c3        1 MOL     -0.083286
     83 C26        -1.0520   -3.2810    1.2850 c         1 MOL      0.508287
     84 O13        -1.2190   -2.3420    0.5570 o         1 MOL     -0.595631
     85 C27        -2.0740   -5.5250    0.7840 c3        1 MOL     -0.015903
     86 C28        -2.1310   -5.3350   -0.7470 ca        1 MOL     -0.051620
     87 C29        -0.9380   -5.3140   -1.5090 ca        1 MOL     -0.063593
     88 C30        -3.3810   -5.0690   -1.4220 ca        1 MOL     -0.063593
     89 C31        -1.0710   -5.2390   -2.9280 ca        1 MOL     -0.315769
     90 C32        -3.4740   -4.9800   -2.8150 ca        1 MOL     -0.315769
     91 C33        -2.2880   -5.0700   -3.5770 ca        1 MOL      0.343964
     92 O14        -2.3990   -4.7960   -4.9030 oh        1 MOL     -0.446495
     93 H37        -3.3900   -2.5940    1.2060 hn        1 MOL     -0.040592
     94 H38        -2.1250   -4.5260    2.7370 h1        1 MOL      0.066873
     95 H39        -2.8230   -6.2710    1.0660 hc        1 MOL      0.050274
     96 H40        -1.1510   -6.0630    1.0350 hc        1 MOL      0.050274
     97 H41         0.0420   -5.3990   -1.0710 ha        1 MOL      0.125402
     98 H42        -4.2190   -4.9020   -0.7610 ha        1 MOL      0.125402
     99 H43        -0.1640   -5.1900   -3.5070 ha        1 MOL      0.144953
    100 H44        -4.4260   -4.8720   -3.3240 ha        1 MOL      0.144953
    101 H45        -1.5290   -4.8960   -5.2870 ho        1 MOL      0.331317
    102 N10         0.1660   -3.5160    1.7770 n         1 MOL     -0.373112
    103 C34         1.3940   -2.7660    1.4430 c3        1 MOL     -0.036614
    104 C35         2.5490   -3.7340    0.9920 c         1 MOL      0.405442
    105 O15         2.6480   -4.9380    1.3330 o         1 MOL     -0.537872
    106 C36         1.8540   -1.9200    2.6510 c3        1 MOL      0.034450
    107 C37         2.3130   -2.7150    3.8380 c3        1 MOL      0.173413
    108 C38         0.7730   -0.8340    2.9670 c3        1 MOL     -0.234632
    109 C39         3.0820   -1.9960    4.9810 c3        1 MOL     -0.232772
    110 H46         0.3010   -4.2770    2.4360 hn        1 MOL      0.276286
    111 H47         1.1660   -2.1060    0.5920 h1        1 MOL      0.075009
    112 H48         2.7540   -1.4280    2.2840 hc        1 MOL     -0.069728
    113 H49         2.9900   -3.4280    3.3700 hc        1 MOL     -0.020666
    114 H50         1.4690   -3.2490    4.2730 hc        1 MOL     -0.020666
    115 H51         1.1220   -0.2100    3.7930 hc        1 MOL      0.079631
    116 H52         0.4910   -0.1130    2.1960 hc        1 MOL      0.079631
    117 H53        -0.0820   -1.2920    3.4620 hc        1 MOL      0.079631
    118 H54         3.2740   -0.9470    4.7520 hc        1 MOL      0.059148
    119 H55         2.3630   -1.9060    5.7950 hc        1 MOL      0.059148
    120 H56         3.9030   -2.6360    5.2850 hc        1 MOL      0.059148
    121 N11         3.4290   -3.1070    0.2240 n         1 MOL     -0.129686
    122 C40         4.6630   -3.6480   -0.4020 c3        1 MOL      0.087884
    123 C41         5.8200   -2.7900    0.0160 c         1 MOL      0.327244
    124 O16         5.5690   -1.6800    0.5870 o         1 MOL     -0.382046
    125 C42         4.4770   -3.6770   -1.9160 c3        1 MOL     -0.022661
    126 O17         4.5080   -2.3870   -2.5130 oh        1 MOL     -0.501817
    127 H57         3.2020   -2.1650   -0.0560 hn        1 MOL      0.179177
    128 H58         4.8820   -4.6340    0.0130 h1        1 MOL      0.071454
    129 H59         3.4960   -4.1320   -2.0450 h1        1 MOL      0.047654
    130 H60         5.2100   -4.3800   -2.3200 h1        1 MOL      0.047654
    131 H61         4.5400   -2.5190   -3.4650 ho        1 MOL      0.405096
    132 N12         7.0580   -3.2420   -0.2960 n         1 MOL     -0.312537
    133 C43         8.3230   -2.4630   -0.0820 c3        1 MOL      0.013235
    134 C44         8.2350   -1.0250   -0.6870 c         1 MOL      0.386701
    135 O18         8.6560   -0.0260   -0.0750 o         1 MOL     -0.472533
    136 C45         9.5370   -3.1900   -0.7720 c3        1 MOL     -0.294979
    137 H62         7.1570   -4.1790   -0.6620 hn        1 MOL      0.273236
    138 H63         8.4470   -2.4550    1.0000 h1        1 MOL      0.118987
    139 H64        10.4800   -2.7010   -0.5720 hc        1 MOL      0.103862
    140 H65         9.5250   -4.2240   -0.4140 hc        1 MOL      0.103862
    141 H66         9.4900   -3.1750   -1.8650 hc        1 MOL      0.103862
    142 N13         7.4590   -0.8150   -1.7790 n         1 MOL     -0.247856
    143 C46         7.2580    0.5560   -2.3260 c3        1 MOL      0.067741
    144 C47         6.5050    1.6100   -1.4720 c         1 MOL      0.289935
    145 O19         6.9080    2.7650   -1.2680 o         1 MOL     -0.491106
    146 C48         6.5920    0.4850   -3.7110 c3        1 MOL     -0.339293
    147 H67         7.0460   -1.6090   -2.2510 hn        1 MOL      0.183915
    148 H68         8.2600    0.9520   -2.4180 h1        1 MOL      0.096558
    149 H69         6.5320    1.5140   -4.0960 hc        1 MOL      0.095001
    150 H70         7.1860   -0.1230   -4.3860 hc        1 MOL      0.095001
    151 H71         5.5930    0.0910   -3.5320 hc        1 MOL      0.095001
    152 N14         5.5280    1.0930   -0.7100 n         1 MOL      0.052398
    153 C49         4.5610    1.8400    0.1050 c3        1 MOL     -0.125563
    154 C50         5.0780    1.8840    1.5300 c         1 MOL      0.437174
    155 O20         5.2090    3.0160    2.0670 o         1 MOL     -0.527169
    156 C51         3.1940    1.1300    0.0290 c3        1 MOL      0.281173
    157 C52         2.5230    1.1830   -1.3220 c3        1 MOL     -0.211847
    158 C53         1.0540    0.6480   -1.2000 c         1 MOL      0.779604
    159 O21         0.7760   -0.4930   -1.6820 o         1 MOL     -0.746037
    160 O22         0.1810    1.2420   -0.5750 o         1 MOL     -0.746037
    161 H72         5.3880    0.0860   -0.7190 hn        1 MOL      0.124905
    162 H73         4.4760    2.8060   -0.3860 h1        1 MOL      0.085015
    163 H74         2.5430    1.5500    0.7960 hc        1 MOL     -0.026632
    164 H75         3.3100    0.0860    0.3000 hc        1 MOL     -0.026632
    165 H76         3.0010    0.5060   -2.0240 hc        1 MOL     -0.018997
    166 H77         2.6030    2.2370   -1.5780 hc        1 MOL     -0.018997
    167 N15         5.6240    0.8050    2.0720 n         1 MOL     -0.207654
    168 C54         6.3440    0.9050    3.3530 c3        1 MOL     -0.037988
    169 H78         7.3750    0.5780    3.2170 h1        1 MOL      0.051482
    170 H79         6.3330    1.9400    3.6960 h1        1 MOL      0.051482
    171 H80         5.8570    0.2710    4.0950 h1        1 MOL      0.051482
    172 H81         5.4730   -0.1080    1.6690 hn        1 MOL      0.152070
    173 Ca1        -1.8090   -0.2980   -0.9720 Ca        1 MOL      1.760882
    174 O23        -1.5090   -1.9740   -2.9100 oh        1 MOL     -0.869434
    175 H82        -0.5920   -2.0000   -3.1880 ho        1 MOL      0.407009
    176 H83        -1.8310   -2.8530   -3.0750 ho        1 MOL      0.407009
@<TRIPOS>BOND
     1    1    2 1   
     2    1    4 1   
     3    1    5 1   
     4    1    6 1   
     5    2    3 2   
     6    2    7 1   
     7    7    8 1   
     8    7   15 1   
     9    8    9 1   
    10    8   11 1   
    11    8   16 1   
    12    9   10 2   
    13    9   19 1   
    14   11   12 1   
    15   11   17 1   
    16   11   18 1   
    17   12   13 1   
    18   12   14 1   
    19   19   20 1   
    20   19   28 1   
    21   20   21 1   
    22   20   23 1   
    23   20   29 1   
    24   21   22 2   
    25   21   41 1   
    26   23   24 1   
    27   23   30 1   
    28   23   31 1   
    29   24   25 1   
    30   24   32 1   
    31   24   33 1   
    32   25   26 1   
    33   25   34 1   
    34   25   35 1   
    35   26   27 1   
    36   26   36 1   
    37   26   37 1   
    38   27   38 1   
    39   27   39 1   
    40   27   40 1   
    41   41   42 1   
    42   41   49 1   
    43   42   43 1   
    44   42   45 1   
    45   42   50 1   
    46   43   44 2   
    47   43   53 1   
    48   45   46 1   
    49   45   51 1   
    50   45   52 1   
    51   46   47 1   
    52   46   48 1   
    53   53   54 1   
    54   53   57 1   
    55   54   55 1   
    56   54   58 1   
    57   54   59 1   
    58   55   56 2   
    59   55   60 1   
    60   60   61 1   
    61   60   68 1   
    62   61   62 1   
    63   61   64 1   
    64   61   69 1   
    65   62   63 2   
    66   62   74 1   
    67   64   65 1   
    68   64   70 1   
    69   64   71 1   
    70   65   66 1   
    71   65   67 2   
    72   66   72 1   
    73   66   73 1   
    74   74   75 1   
    75   74   78 1   
    76   75   76 1   
    77   75   79 1   
    78   75   80 1   
    79   76   77 2   
    80   76   81 1   
    81   81   82 1   
    82   81   93 1   
    83   82   83 1   
    84   82   85 1   
    85   82   94 1   
    86   83   84 2   
    87   83  102 1   
    88   85   86 1   
    89   85   95 1   
    90   85   96 1   
    91   86   87 ar  
    92   86   88 ar  
    93   87   89 ar  
    94   87   97 1   
    95   88   90 ar  
    96   88   98 1   
    97   89   91 ar  
    98   89   99 1   
    99   90   91 ar  
   100   90  100 1   
   101   91   92 1   
   102   92  101 1   
   103  102  103 1   
   104  102  110 1   
   105  103  104 1   
   106  103  106 1   
   107  103  111 1   
   108  104  105 2   
   109  104  121 1   
   110  106  107 1   
   111  106  108 1   
   112  106  112 1   
   113  107  109 1   
   114  107  113 1   
   115  107  114 1   
   116  108  115 1   
   117  108  116 1   
   118  108  117 1   
   119  109  118 1   
   120  109  119 1   
   121  109  120 1   
   122  121  122 1   
   123  121  127 1   
   124  122  123 1   
   125  122  125 1   
   126  122  128 1   
   127  123  124 2   
   128  123  132 1   
   129  125  126 1   
   130  125  129 1   
   131  125  130 1   
   132  126  131 1   
   133  132  133 1   
   134  132  137 1   
   135  133  134 1   
   136  133  136 1   
   137  133  138 1   
   138  134  135 2   
   139  134  142 1   
   140  136  139 1   
   141  136  140 1   
   142  136  141 1   
   143  142  143 1   
   144  142  147 1   
   145  143  144 1   
   146  143  146 1   
   147  143  148 1   
   148  144  145 2   
   149  144  152 1   
   150  146  149 1   
   151  146  150 1   
   152  146  151 1   
   153  152  153 1   
   154  152  161 1   
   155  153  154 1   
   156  153  156 1   
   157  153  162 1   
   158  154  155 2   
   159  154  167 1   
   160  156  157 1   
   161  156  163 1   
   162  156  164 1   
   163  157  158 1   
   164  157  165 1   
   165  157  166 1   
   166  158  159 1   
   167  158  160 1   
   168  167  168 1   
   169  167  172 1   
   170  168  169 1   
   171  168  170 1   
   172  168  171 1   
   173  174  175 1   
   174  174  176 1   
@<TRIPOS>SUBSTRUCTURE
     1 MOL         1 TEMP              0 ****  ****    0 ROOT
