@<TRIPOS>MOLECULE
MOL
  189   185     1     0     0
SMALL
resp


@<TRIPOS>ATOM
      1 C1          0.1370    1.4090    6.8200 c3        1 MOL     -0.226442
      2 C2          0.0270    1.3890    5.2650 c         1 MOL      0.723217
      3 O1          0.9260    1.8050    4.5260 o         1 MOL     -0.601741
      4 H1          0.4570    0.4280    7.1730 hc        1 MOL      0.056808
      5 H2          0.8670    2.1590    7.1240 hc        1 MOL      0.056808
      6 H3         -0.8350    1.6500    7.2520 hc        1 MOL      0.056808
      7 N1         -1.1450    0.9860    4.7480 n         1 MOL     -0.567606
      8 C3         -1.6310    1.2520    3.3870 c3        1 MOL     -0.023393
      9 C4         -1.7780    2.7870    3.0020 c         1 MOL      0.699840
     10 O2         -2.2770    3.5330    3.8580 o         1 MOL     -0.577301
     11 C5         -2.9980    0.5400    3.2120 c3        1 MOL     -0.029976
     12 C6         -3.6330    0.4010    1.8700 c         1 MOL      0.714512
     13 O3         -4.8270    0.0190    1.8830 o         1 MOL     -0.694312
     14 O4         -2.9820    0.8020    0.8600 o         1 MOL     -0.694312
     15 H4         -1.6780    0.3830    5.3560 hn        1 MOL      0.308618
     16 H5         -0.9510    0.7650    2.6890 h1        1 MOL      0.043915
     17 H6         -3.7950    0.9480    3.8270 hc        1 MOL      0.015893
     18 H7         -2.7020   -0.4530    3.5490 hc        1 MOL      0.015893
     19 N2         -1.4020    3.2800    1.7890 n         1 MOL     -0.429923
     20 C7         -1.5690    4.6840    1.4800 c3        1 MOL      0.018877
     21 C8         -2.6910    5.1040    0.5140 c         1 MOL      0.531493
     22 O5         -3.0440    6.2750    0.3730 o         1 MOL     -0.589128
     23 C9         -0.1920    5.2210    1.0170 c3        1 MOL     -0.013459
     24 C10        -0.0070    6.6720    0.7190 c3        1 MOL      0.101261
     25 C11         1.4380    7.0770    0.4380 c3        1 MOL      0.031758
     26 C12         1.6420    8.4440   -0.1350 c3        1 MOL     -0.119732
     27 N3          1.8000    8.3880   -1.5820 n4        1 MOL     -0.355845
     28 H8         -1.0490    2.6700    1.0700 hn        1 MOL      0.235436
     29 H9         -1.8070    5.1630    2.4230 h1        1 MOL      0.074835
     30 H10         0.0910    4.6490    0.1320 hc        1 MOL      0.029270
     31 H11         0.4550    4.8380    1.8160 hc        1 MOL      0.029270
     32 H12        -0.5080    7.2400    1.5110 hc        1 MOL     -0.009429
     33 H13        -0.5680    6.8840   -0.1860 hc        1 MOL     -0.009429
     34 H14         1.7790    6.3530   -0.2960 hc        1 MOL      0.006258
     35 H15         1.9860    6.7880    1.3320 hc        1 MOL      0.006258
     36 H16         2.4990    8.8120    0.4400 hx        1 MOL      0.129226
     37 H17         0.8790    9.1640    0.1530 hx        1 MOL      0.129226
     38 H18         2.6740    7.9660   -1.8790 hn        1 MOL      0.333792
     39 H19         1.0310    7.9060   -2.0240 hn        1 MOL      0.333792
     40 H20         2.0020    9.3200   -1.9250 hn        1 MOL      0.333792
     41 N4         -3.2540    4.0920   -0.1760 n         1 MOL     -0.307816
     42 C13        -4.1220    4.3200   -1.3260 c3        1 MOL     -0.043661
     43 C14        -5.4650    3.5410   -1.3120 c         1 MOL      0.482496
     44 O6         -6.3880    3.6390   -2.1680 o         1 MOL     -0.530983
     45 C15        -3.4430    4.0140   -2.7290 c3        1 MOL     -0.121350
     46 C16        -3.0720    2.5890   -3.0740 c         1 MOL      0.765396
     47 O7         -2.6550    2.4430   -4.2950 o         1 MOL     -0.689373
     48 O8         -3.0870    1.6920   -2.2450 o         1 MOL     -0.689373
     49 H21        -2.8460    3.1890    0.0330 hn        1 MOL      0.189808
     50 H22        -4.3970    5.3710   -1.2700 h1        1 MOL      0.106277
     51 H23        -2.5390    4.6200   -2.6730 hc        1 MOL      0.018595
     52 H24        -3.9970    4.4150   -3.5770 hc        1 MOL      0.018595
     53 N5         -5.6320    2.6890   -0.2650 n         1 MOL     -0.252985
     54 C17        -6.9550    2.1850    0.2420 c3        1 MOL     -0.253796
     55 C18        -7.5480    1.0120   -0.4710 c         1 MOL      0.626885
     56 O9         -8.7340    0.8510   -0.2900 o         1 MOL     -0.596477
     57 H25        -4.7830    2.4020    0.1990 hn        1 MOL      0.179064
     58 H26        -7.6440    3.0210    0.2410 h1        1 MOL      0.136993
     59 H27        -6.9000    1.8950    1.2900 h1        1 MOL      0.136993
     60 N6         -6.8280    0.2020   -1.2940 n         1 MOL     -0.261585
     61 C19        -7.1540   -1.1100   -1.8660 c3        1 MOL     -0.092470
     62 C20        -7.0280   -2.3140   -0.8650 c         1 MOL      0.499583
     63 O10        -7.1180   -3.4840   -1.1780 o         1 MOL     -0.507948
     64 C21        -6.2750   -1.3910   -3.1990 c3        1 MOL     -0.244151
     65 C22        -4.8210   -1.5910   -2.9740 c         1 MOL      0.806746
     66 O11        -4.1790   -1.9690   -4.0050 o         1 MOL     -0.670573
     67 O12        -4.2590   -1.3060   -1.9050 o         1 MOL     -0.670573
     68 H28        -5.8590    0.4920   -1.3280 hn        1 MOL      0.159696
     69 H29        -8.2110   -1.0690   -2.1240 h1        1 MOL      0.115301
     70 H30        -6.3870   -0.5270   -3.8540 hc        1 MOL      0.092962
     71 H31        -6.7520   -2.2680   -3.6390 hc        1 MOL      0.092962
     72 N7         -6.7340   -2.0190    0.4210 n         1 MOL     -0.417103
     73 C23        -6.5400   -2.9890    1.5180 c3        1 MOL      0.036882
     74 C24        -5.4280   -4.0120    1.2890 c         1 MOL      0.366704
     75 O13        -5.3620   -5.0290    1.9250 o         1 MOL     -0.531746
     76 H32        -6.5970   -1.0490    0.6380 hn        1 MOL      0.292395
     77 H33        -7.4490   -3.5060    1.8240 h1        1 MOL      0.075512
     78 H34        -6.2910   -2.3990    2.3970 h1        1 MOL      0.075512
     79 N8         -4.4460   -3.7250    0.3420 n         1 MOL     -0.065641
     80 C25        -3.2030   -4.4960    0.1820 c3        1 MOL      0.247378
     81 C26        -1.9240   -3.6000    0.3380 c         1 MOL      0.438674
     82 O14        -2.0040   -2.3700    0.3770 o         1 MOL     -0.648583
     83 C27        -3.1920   -5.3680   -1.1470 c3        1 MOL      0.245672
     84 C28        -4.5240   -6.2260   -1.2750 c3        1 MOL     -0.231056
     85 O15        -3.1120   -4.5700   -2.3550 oh        1 MOL     -0.646721
     86 H35        -4.6090   -2.8690   -0.1740 hn        1 MOL      0.058368
     87 H36        -3.2060   -5.2060    1.0030 h1        1 MOL     -0.010314
     88 H37        -2.4440   -6.1580   -1.0740 h1        1 MOL     -0.032317
     89 H38        -3.2430   -5.0460   -3.1790 ho        1 MOL      0.423257
     90 H39        -4.4500   -6.8730   -2.1540 hc        1 MOL      0.057400
     91 H40        -4.6420   -6.8240   -0.3730 hc        1 MOL      0.057400
     92 H41        -5.3620   -5.5360   -1.4200 hc        1 MOL      0.057400
     93 N9         -0.8300   -4.2310    0.5990 n         1 MOL     -0.555203
     94 C29         0.4460   -3.6020    0.8820 c3        1 MOL      0.152693
     95 C30         1.5710   -3.9220   -0.0720 c         1 MOL      0.446179
     96 O16         1.9120   -5.0700   -0.2900 o         1 MOL     -0.543064
     97 C31         0.6280   -3.7560    2.4610 c3        1 MOL      0.069889
     98 C32        -0.2240   -2.6820    3.2350 c3        1 MOL      0.104265
     99 C33         2.1190   -3.6340    2.8730 c3        1 MOL     -0.378321
    100 C34         0.2130   -2.2820    4.6480 c3        1 MOL     -0.280419
    101 H42        -0.8840   -5.2260    0.7490 hn        1 MOL      0.302251
    102 H43         0.3170   -2.5290    0.7270 h1        1 MOL      0.118917
    103 H44         0.3380   -4.7720    2.7490 hc        1 MOL      0.021425
    104 H45        -1.2660   -3.0140    3.1780 hc        1 MOL      0.021283
    105 H46        -0.1230   -1.7570    2.6650 hc        1 MOL      0.021283
    106 H47         2.1300   -4.1740    3.8190 hc        1 MOL      0.079971
    107 H48         2.7500   -4.2460    2.2220 hc        1 MOL      0.079971
    108 H49         2.4570   -2.6170    3.0730 hc        1 MOL      0.079971
    109 H50         1.0530   -1.5940    4.6430 hc        1 MOL      0.064985
    110 H51        -0.6290   -1.7950    5.1450 hc        1 MOL      0.064985
    111 H52         0.5850   -3.1220    5.2420 hc        1 MOL      0.064985
    112 N10         2.1490   -2.9300   -0.7360 n         1 MOL     -0.141718
    113 C35         3.3880   -2.9700   -1.5660 c3        1 MOL     -0.002445
    114 C36         4.7380   -3.1090   -0.8030 c         1 MOL      0.346381
    115 O17         4.7540   -3.0580    0.4210 o         1 MOL     -0.391514
    116 C37         3.2850   -1.7840   -2.5310 c3        1 MOL     -0.031861
    117 C38         1.9180   -1.7200   -3.2380 c3        1 MOL     -0.191786
    118 O18         3.5640   -0.6060   -1.7970 oh        1 MOL     -0.228105
    119 H53         1.8860   -1.9970   -0.4690 hn        1 MOL      0.192427
    120 H54         3.2410   -3.9080   -2.1050 h1        1 MOL      0.078136
    121 H55         4.0230   -1.9700   -3.3110 h1        1 MOL      0.026266
    122 H56         3.3700    0.0890   -2.4340 ho        1 MOL      0.317157
    123 H57         1.1800   -1.6810   -2.4430 hc        1 MOL      0.065067
    124 H58         1.7810   -0.8710   -3.9090 hc        1 MOL      0.065067
    125 H59         1.6520   -2.6470   -3.7590 hc        1 MOL      0.065067
    126 N11         5.8450   -2.9800   -1.4720 n         1 MOL     -0.168402
    127 C39         7.2110   -2.9180   -0.8210 c3        1 MOL     -0.242875
    128 C40         7.4660   -1.4720   -0.3640 c         1 MOL      0.397564
    129 O19         8.0160   -1.2680    0.7030 o         1 MOL     -0.477871
    130 C41         8.3600   -3.2200   -1.7680 c3        1 MOL      0.308288
    131 C42         8.2760   -4.7050   -2.0390 c3        1 MOL     -0.301435
    132 O20         8.1310   -2.5700   -2.9650 oh        1 MOL     -0.634437
    133 H60         5.7530   -3.1480   -2.4610 hn        1 MOL      0.255488
    134 H61         7.2380   -3.5500    0.0740 h1        1 MOL      0.196387
    135 H62         9.3620   -2.9990   -1.3990 h1        1 MOL      0.056597
    136 H63         8.9050   -2.7200   -3.5150 ho        1 MOL      0.413885
    137 H64         7.4370   -4.9690   -2.6800 hc        1 MOL      0.082267
    138 H65         9.1880   -4.9980   -2.5650 hc        1 MOL      0.082267
    139 H66         8.2740   -5.2470   -1.0950 hc        1 MOL      0.082267
    140 N12         6.7930   -0.4530   -0.9180 n         1 MOL     -0.220411
    141 C43         6.7970    0.8800   -0.3510 c3        1 MOL     -0.110332
    142 C44         6.0070    1.0250    0.9440 c         1 MOL      0.378569
    143 O21         6.3880    1.6940    1.8750 o         1 MOL     -0.501862
    144 C45         6.4890    1.8280   -1.5190 c3        1 MOL      0.021524
    145 C46         6.7230    3.2790   -1.1030 c3        1 MOL     -0.059978
    146 C47         6.5470    4.2140   -2.3670 c3        1 MOL     -0.017309
    147 C48         7.0890    3.7410   -3.6950 c3        1 MOL      0.057377
    148 N13         8.5300    3.7120   -3.8430 n4        1 MOL     -0.305917
    149 H67         6.2560   -0.6140   -1.7630 hn        1 MOL      0.154562
    150 H68         7.8290    1.0920   -0.0730 h1        1 MOL      0.112948
    151 H69         5.5250    1.4930   -1.8940 hc        1 MOL     -0.002194
    152 H70         7.2510    1.5100   -2.2350 hc        1 MOL     -0.002194
    153 H71         7.7390    3.4010   -0.7320 hc        1 MOL      0.047443
    154 H72         5.9590    3.5730   -0.3860 hc        1 MOL      0.047443
    155 H73         6.8000    5.2440   -2.1170 hc        1 MOL      0.022377
    156 H74         5.4880    4.2260   -2.6160 hc        1 MOL      0.022377
    157 H75         6.6380    4.4920   -4.3450 hx        1 MOL      0.065346
    158 H76         6.5510    2.8150   -3.9050 hx        1 MOL      0.065346
    159 H77         8.8130    2.7940   -3.5400 hn        1 MOL      0.270580
    160 H78         8.9190    4.0120   -4.7250 hn        1 MOL      0.270580
    161 H79         8.9910    4.2780   -3.1420 hn        1 MOL      0.270580
    162 N14         4.8420    0.3620    0.9690 n         1 MOL      0.014970
    163 C49         3.8730    0.4100    2.0770 c3        1 MOL     -0.125803
    164 C50         4.3560   -0.5050    3.2430 c         1 MOL      0.444692
    165 O22         4.2890   -0.0790    4.4090 o         1 MOL     -0.548416
    166 C51         2.4610    0.1000    1.6160 c3        1 MOL      0.387512
    167 C52         1.8600    1.1770    0.7600 c3        1 MOL     -0.427050
    168 C53         0.6640    0.7750   -0.0700 c         1 MOL      0.519751
    169 O23        -0.2750    1.5570   -0.3050 o         1 MOL     -0.675388
    170 O24         0.4660   -0.4190   -0.4230 o         1 MOL     -0.675388
    171 H80         4.6350   -0.2050    0.1520 hn        1 MOL     -0.077993
    172 H81         3.9770    1.4170    2.4840 h1        1 MOL      0.101597
    173 H82         1.7800   -0.0700    2.4520 hc        1 MOL     -0.038043
    174 H83         2.4790   -0.8060    0.9990 hc        1 MOL     -0.038043
    175 H84         2.6510    1.5310    0.1060 hc        1 MOL      0.086615
    176 H85         1.6540    2.0500    1.3680 hc        1 MOL      0.086615
    177 N15         4.9500   -1.6200    2.9240 n         1 MOL      0.018178
    178 C54         5.6750   -2.3940    3.8940 c3        1 MOL     -0.384154
    179 H86         4.9720   -2.8950    4.5590 h1        1 MOL      0.121927
    180 H87         6.2840   -3.1400    3.3820 h1        1 MOL      0.121927
    181 H88         6.3190   -1.7370    4.4770 h1        1 MOL      0.121927
    182 H89         5.0390   -2.0120    1.9890 hn        1 MOL      0.148741
    183 Ca1        -1.9860   -0.3090   -1.1930 Ca        1 MOL      1.724103
    184 O25        -1.4610   -2.0970   -3.2650 oh        1 MOL     -0.762205
    185 H90        -2.3110   -2.4080   -3.5790 ho        1 MOL      0.363990
    186 H91        -0.8320   -2.4700   -3.8710 ho        1 MOL      0.363990
    187 O26        -0.4360    0.5970   -3.3590 oh        1 MOL     -0.762205
    188 H92         0.4570    0.7250   -3.0150 ho        1 MOL      0.363990
    189 H93        -0.7150    1.4800   -3.6120 ho        1 MOL      0.363990
@<TRIPOS>BOND
     1    1    2 1   
     2    1    4 1   
     3    1    5 1   
     4    1    6 1   
     5    2    3 2   
     6    2    7 1   
     7    7    8 1   
     8    7   15 1   
     9    8    9 1   
    10    8   11 1   
    11    8   16 1   
    12    9   10 2   
    13    9   19 1   
    14   11   12 1   
    15   11   17 1   
    16   11   18 1   
    17   12   13 1   
    18   12   14 1   
    19   19   20 1   
    20   19   28 1   
    21   20   21 1   
    22   20   23 1   
    23   20   29 1   
    24   21   22 2   
    25   21   41 1   
    26   23   24 1   
    27   23   30 1   
    28   23   31 1   
    29   24   25 1   
    30   24   32 1   
    31   24   33 1   
    32   25   26 1   
    33   25   34 1   
    34   25   35 1   
    35   26   27 1   
    36   26   36 1   
    37   26   37 1   
    38   27   38 1   
    39   27   39 1   
    40   27   40 1   
    41   41   42 1   
    42   41   49 1   
    43   42   43 1   
    44   42   45 1   
    45   42   50 1   
    46   43   44 2   
    47   43   53 1   
    48   45   46 1   
    49   45   51 1   
    50   45   52 1   
    51   46   47 1   
    52   46   48 1   
    53   53   54 1   
    54   53   57 1   
    55   54   55 1   
    56   54   58 1   
    57   54   59 1   
    58   55   56 2   
    59   55   60 1   
    60   60   61 1   
    61   60   68 1   
    62   61   62 1   
    63   61   64 1   
    64   61   69 1   
    65   62   63 2   
    66   62   72 1   
    67   64   65 1   
    68   64   70 1   
    69   64   71 1   
    70   65   66 1   
    71   65   67 1   
    72   72   73 1   
    73   72   76 1   
    74   73   74 1   
    75   73   77 1   
    76   73   78 1   
    77   74   75 2   
    78   74   79 1   
    79   79   80 1   
    80   79   86 1   
    81   80   81 1   
    82   80   83 1   
    83   80   87 1   
    84   81   82 2   
    85   81   93 1   
    86   83   84 1   
    87   83   85 1   
    88   83   88 1   
    89   84   90 1   
    90   84   91 1   
    91   84   92 1   
    92   85   89 1   
    93   93   94 1   
    94   93  101 1   
    95   94   95 1   
    96   94   97 1   
    97   94  102 1   
    98   95   96 2   
    99   95  112 1   
   100   97   98 1   
   101   97   99 1   
   102   97  103 1   
   103   98  100 1   
   104   98  104 1   
   105   98  105 1   
   106   99  106 1   
   107   99  107 1   
   108   99  108 1   
   109  100  109 1   
   110  100  110 1   
   111  100  111 1   
   112  112  113 1   
   113  112  119 1   
   114  113  114 1   
   115  113  116 1   
   116  113  120 1   
   117  114  115 2   
   118  114  126 1   
   119  116  117 1   
   120  116  118 1   
   121  116  121 1   
   122  117  123 1   
   123  117  124 1   
   124  117  125 1   
   125  118  122 1   
   126  126  127 1   
   127  126  133 1   
   128  127  128 1   
   129  127  130 1   
   130  127  134 1   
   131  128  129 2   
   132  128  140 1   
   133  130  131 1   
   134  130  132 1   
   135  130  135 1   
   136  131  137 1   
   137  131  138 1   
   138  131  139 1   
   139  132  136 1   
   140  140  141 1   
   141  140  149 1   
   142  141  142 1   
   143  141  144 1   
   144  141  150 1   
   145  142  143 2   
   146  142  162 1   
   147  144  145 1   
   148  144  151 1   
   149  144  152 1   
   150  145  146 1   
   151  145  153 1   
   152  145  154 1   
   153  146  147 1   
   154  146  155 1   
   155  146  156 1   
   156  147  148 1   
   157  147  157 1   
   158  147  158 1   
   159  148  159 1   
   160  148  160 1   
   161  148  161 1   
   162  162  163 1   
   163  162  171 1   
   164  163  164 1   
   165  163  166 1   
   166  163  172 1   
   167  164  165 2   
   168  164  177 1   
   169  166  167 1   
   170  166  173 1   
   171  166  174 1   
   172  167  168 1   
   173  167  175 1   
   174  167  176 1   
   175  168  169 1   
   176  168  170 1   
   177  177  178 1   
   178  177  182 1   
   179  178  179 1   
   180  178  180 1   
   181  178  181 1   
   182  184  185 1   
   183  184  186 1   
   184  187  188 1   
   185  187  189 1   
@<TRIPOS>SUBSTRUCTURE
     1 MOL         1 TEMP              0 ****  ****    0 ROOT
