@<TRIPOS>MOLECULE
MOL
  179   176     1     0     0
SMALL
resp


@<TRIPOS>ATOM
      1 C1          2.5850    2.5680    4.2660 c3        1 MOL     -0.357548
      2 C2          1.7360    2.6410    2.9770 c         1 MOL      0.566054
      3 O1          2.2730    2.5790    1.8730 o         1 MOL     -0.525379
      4 H1          2.8220    3.5790    4.6020 hc        1 MOL      0.095065
      5 H2          2.0220    2.0520    5.0430 hc        1 MOL      0.095065
      6 H3          3.5080    2.0260    4.0640 hc        1 MOL      0.095065
      7 N1          0.3880    2.6940    3.1310 n         1 MOL     -0.493173
      8 C3         -0.6090    2.7340    2.0960 c3        1 MOL      0.296397
      9 C4         -0.8590    4.1490    1.5740 c         1 MOL      0.498736
     10 O2         -1.9540    4.6330    1.5860 o         1 MOL     -0.443663
     11 C5         -1.8810    1.9510    2.5200 c3        1 MOL     -0.329452
     12 C6         -2.8350    1.6450    1.3040 c         1 MOL      0.739449
     13 O3         -4.0080    1.4900    1.5200 o         1 MOL     -0.686761
     14 O4         -2.3930    1.5390    0.1600 o         1 MOL     -0.686761
     15 H4          0.0050    2.7840    4.0570 hn        1 MOL      0.269287
     16 H5         -0.2060    2.1030    1.3000 h1        1 MOL      0.023348
     17 H6         -2.4450    2.5680    3.2080 hc        1 MOL      0.072239
     18 H7         -1.5130    1.0340    2.9660 hc        1 MOL      0.072239
     19 N2          0.1850    4.8160    1.0750 n         1 MOL     -0.637838
     20 C7          0.1090    6.1570    0.4560 c3        1 MOL      0.058293
     21 C8         -0.7530    6.3570   -0.8080 c         1 MOL      0.451919
     22 O5         -1.1150    7.4710   -1.1130 o         1 MOL     -0.521644
     23 C9          1.4570    6.7300    0.1050 c3        1 MOL     -0.150148
     24 C10         2.4570    6.9090    1.2420 c3        1 MOL      0.301672
     25 C11         3.7340    7.5530    0.7750 c3        1 MOL     -0.072744
     26 C12         4.6170    7.7660    2.0190 c3        1 MOL     -0.019890
     27 N3          5.2880    6.4970    2.4020 n4        1 MOL     -0.326706
     28 H8          1.0110    4.2960    0.8140 hn        1 MOL      0.385557
     29 H9         -0.2760    6.8350    1.2230 h1        1 MOL      0.101740
     30 H10         1.2130    7.7010   -0.3350 hc        1 MOL      0.047866
     31 H11         1.9070    6.0770   -0.6420 hc        1 MOL      0.047866
     32 H12         2.7200    5.9070    1.5990 hc        1 MOL     -0.081969
     33 H13         2.1700    7.5450    2.0820 hc        1 MOL     -0.081969
     34 H14         3.4890    8.4800    0.2550 hc        1 MOL      0.052574
     35 H15         4.4350    7.0070    0.1400 hc        1 MOL      0.052574
     36 H16         4.1890    8.1920    2.9360 hx        1 MOL      0.098376
     37 H17         5.3870    8.5160    1.8420 hx        1 MOL      0.098376
     38 H18         6.0160    6.6760    3.0820 hn        1 MOL      0.321767
     39 H19         4.6250    5.9430    2.9310 hn        1 MOL      0.321767
     40 H20         5.6630    5.8990    1.6790 hn        1 MOL      0.321767
     41 N4         -1.1230    5.2090   -1.4450 n         1 MOL     -0.312515
     42 C13        -2.2340    5.0980   -2.4150 c3        1 MOL      0.169444
     43 C14        -3.7200    4.8970   -1.9470 c         1 MOL      0.377166
     44 O6         -4.6110    5.0670   -2.7720 o         1 MOL     -0.524575
     45 C15        -1.9140    4.0510   -3.5040 c3        1 MOL     -0.418521
     46 C16        -1.6050    2.6430   -2.9750 c         1 MOL      0.846859
     47 O7         -0.4930    2.4130   -2.4720 o         1 MOL     -0.775687
     48 O8         -2.5590    1.8420   -2.8570 o         1 MOL     -0.775687
     49 H21        -0.7510    4.3970   -0.9790 hn        1 MOL      0.239248
     50 H22        -2.3200    6.0640   -2.9070 h1        1 MOL      0.072158
     51 H23        -0.9990    4.4120   -3.9780 hc        1 MOL      0.101270
     52 H24        -2.7470    3.9480   -4.1930 hc        1 MOL      0.101270
     53 N5         -3.9140    4.3110   -0.7630 n         1 MOL      0.037864
     54 C17        -5.1620    4.2600   -0.0590 c3        1 MOL     -0.286861
     55 C18        -6.0090    3.0180   -0.2950 c         1 MOL      0.600529
     56 O9         -7.1770    3.0370    0.0820 o         1 MOL     -0.586781
     57 H25        -3.0580    4.1220   -0.2520 hn        1 MOL     -0.006099
     58 H26        -5.7730    5.1400   -0.2640 h1        1 MOL      0.128473
     59 H27        -5.0750    4.2930    1.0350 h1        1 MOL      0.128473
     60 N6         -5.4830    1.9160   -0.8970 n         1 MOL     -0.309757
     61 C19        -6.3010    0.7870   -1.3810 c3        1 MOL     -0.001853
     62 C20        -6.7800   -0.2510   -0.3520 c         1 MOL      0.397628
     63 O10        -7.6560   -1.0020   -0.7210 o         1 MOL     -0.499193
     64 C21        -5.6630    0.1920   -2.6460 c3        1 MOL      0.040684
     65 C22        -4.5500   -0.7960   -2.3770 c         1 MOL      0.532330
     66 N7         -4.4750   -1.8110   -3.1830 n         1 MOL     -0.736157
     67 O11        -3.7300   -0.7060   -1.4330 o         1 MOL     -0.553341
     68 H28        -4.4930    1.9480   -1.0900 hn        1 MOL      0.214120
     69 H29        -7.2330    1.2230   -1.7330 h1        1 MOL      0.083139
     70 H30        -5.4180    0.9510   -3.3930 hc        1 MOL      0.028649
     71 H31        -6.4770   -0.3920   -3.0760 hc        1 MOL      0.028649
     72 H32        -5.1390   -1.9550   -3.9300 hn        1 MOL      0.354465
     73 H33        -3.7830   -2.5400   -3.0320 hn        1 MOL      0.354465
     74 N8         -6.2250   -0.3050    0.8800 n         1 MOL     -0.199506
     75 C23        -6.4350   -1.2520    1.9460 c3        1 MOL     -0.185247
     76 C24        -5.3100   -2.2750    2.1270 c         1 MOL      0.650499
     77 O12        -5.6490   -3.2690    2.7400 o         1 MOL     -0.540555
     78 H34        -5.5400    0.4310    1.0060 hn        1 MOL      0.244899
     79 H35        -7.3920   -1.7560    1.8020 h1        1 MOL      0.109118
     80 H36        -6.5370   -0.7360    2.8940 h1        1 MOL      0.109118
     81 N9         -4.1250   -2.1140    1.5620 n         1 MOL     -0.610424
     82 C25        -3.1260   -3.1710    1.3980 c3        1 MOL      0.014778
     83 C26        -1.6960   -2.5900    1.2400 c         1 MOL      0.641313
     84 O13        -1.4960   -1.7180    0.3990 o         1 MOL     -0.641749
     85 C27        -3.3870   -3.9970    0.1630 c3        1 MOL      0.245696
     86 C28        -4.6490   -4.8040    0.2060 ca        1 MOL     -0.232996
     87 C29        -5.8050   -4.3150   -0.4830 ca        1 MOL     -0.125148
     88 C30        -4.7780   -5.9970    1.0050 ca        1 MOL     -0.125148
     89 C31        -6.9870   -5.0320   -0.4170 ca        1 MOL     -0.081127
     90 C32        -5.9690   -6.7250    0.9310 ca        1 MOL     -0.081127
     91 C33        -7.0920   -6.2810    0.2730 ca        1 MOL      0.160980
     92 O14        -8.3090   -6.8620    0.4930 oh        1 MOL     -0.447596
     93 H37        -3.8680   -1.1970    1.2220 hn        1 MOL      0.361531
     94 H38        -3.1920   -3.9070    2.1980 h1        1 MOL      0.079991
     95 H39        -2.4630   -4.5770    0.0910 hc        1 MOL     -0.052844
     96 H40        -3.3880   -3.3170   -0.6880 hc        1 MOL     -0.052844
     97 H41        -5.7510   -3.3840   -1.0330 ha        1 MOL      0.125594
     98 H42        -3.9680   -6.4360    1.5670 ha        1 MOL      0.125594
     99 H43        -7.7920   -4.6030   -0.9980 ha        1 MOL      0.088648
    100 H44        -5.9680   -7.6930    1.3910 ha        1 MOL      0.088648
    101 H45        -8.3280   -7.7060    0.9330 ho        1 MOL      0.361219
    102 N10        -0.7820   -3.1680    1.9700 n         1 MOL     -0.556926
    103 C34         0.6870   -2.9200    1.9510 c3        1 MOL      0.145343
    104 C35         1.4200   -3.9160    1.1220 c         1 MOL      0.478713
    105 O15         1.2670   -5.1450    1.2800 o         1 MOL     -0.582512
    106 C36         1.2760   -2.8290    3.3260 c3        1 MOL      0.104567
    107 C37         0.3350   -2.0930    4.3570 c3        1 MOL      0.419290
    108 C38         2.6980   -2.3150    3.3220 c3        1 MOL     -0.642164
    109 C39         0.8450   -1.9300    5.7880 c3        1 MOL     -0.348364
    110 H46        -1.0840   -3.8470    2.6530 hn        1 MOL      0.309184
    111 H47         0.9070   -1.9170    1.5900 h1        1 MOL      0.041740
    112 H48         1.2910   -3.8550    3.6960 hc        1 MOL     -0.006687
    113 H49        -0.5790   -2.6790    4.4460 hc        1 MOL     -0.090323
    114 H50         0.0580   -1.0930    4.0440 hc        1 MOL     -0.090323
    115 H51         3.2680   -2.7950    2.5210 hc        1 MOL      0.151774
    116 H52         2.8590   -1.2370    3.2660 hc        1 MOL      0.151774
    117 H53         3.0340   -2.4030    4.3480 hc        1 MOL      0.151774
    118 H54         1.6900   -1.2450    5.7150 hc        1 MOL      0.075054
    119 H55         0.0660   -1.4810    6.4050 hc        1 MOL      0.075054
    120 H56         1.1310   -2.8660    6.2520 hc        1 MOL      0.075054
    121 N11         2.2440   -3.5020    0.1510 n         1 MOL      0.033847
    122 C40         3.1460   -4.3240   -0.7460 c3        1 MOL     -0.160131
    123 C41         4.5840   -3.9670   -0.4320 c         1 MOL      0.577291
    124 O16         5.0080   -3.0430    0.3050 o         1 MOL     -0.501284
    125 C42         2.7510   -4.0890   -2.2200 c3        1 MOL      0.064566
    126 O17         3.1310   -2.8010   -2.5320 oh        1 MOL     -0.656332
    127 H57         2.1700   -2.5000    0.0550 hn        1 MOL     -0.038988
    128 H58         3.1070   -5.3720   -0.4570 h1        1 MOL      0.072515
    129 H59         1.6630   -4.2070   -2.2050 h1        1 MOL      0.057373
    130 H60         3.1670   -4.8040   -2.9200 h1        1 MOL      0.057373
    131 H61         2.4850   -2.1980   -2.1720 ho        1 MOL      0.518529
    132 N12         5.4970   -4.7980   -0.9720 n         1 MOL     -0.400575
    133 C43         6.9210   -4.6500   -0.6510 c3        1 MOL      0.045581
    134 C44         7.5800   -3.3780   -1.3320 c         1 MOL      0.467327
    135 O18         8.5750   -2.8420   -0.7680 o         1 MOL     -0.515758
    136 C45         7.6030   -5.9840   -1.0180 c3        1 MOL     -0.300053
    137 H62         5.2350   -5.4450   -1.6960 hn        1 MOL      0.264123
    138 H63         7.1140   -4.5850    0.4160 h1        1 MOL      0.111836
    139 H64         7.6070   -6.1410   -2.0990 hc        1 MOL      0.096806
    140 H65         8.6610   -5.9560   -0.7650 hc        1 MOL      0.096806
    141 H66         7.1440   -6.8100   -0.4740 hc        1 MOL      0.096806
    142 N13         7.0750   -2.8240   -2.4400 n         1 MOL     -0.368636
    143 C46         7.5410   -1.5550   -2.9450 c3        1 MOL      0.074160
    144 C47         7.2810   -0.4550   -2.0150 c         1 MOL      0.423361
    145 O19         8.1450    0.3860   -1.7300 o         1 MOL     -0.547741
    146 C48         6.9580   -1.2490   -4.3200 c3        1 MOL     -0.366707
    147 H67         6.2760   -3.2450   -2.8750 hn        1 MOL      0.273028
    148 H68         8.6270   -1.6340   -3.0420 h1        1 MOL      0.107326
    149 H69         5.8800   -1.2310   -4.4420 hc        1 MOL      0.110780
    150 H70         7.3180   -0.2600   -4.6370 hc        1 MOL      0.110780
    151 H71         7.4520   -1.9600   -4.9800 hc        1 MOL      0.110780
    152 N14         6.1300   -0.4320   -1.3630 n         1 MOL     -0.174294
    153 C49         5.8520    0.6220   -0.4870 c3        1 MOL     -0.077307
    154 C50         6.2680    0.5170    1.0000 c         1 MOL      0.585133
    155 O20         6.5280    1.4890    1.6600 o         1 MOL     -0.612635
    156 C51         4.3120    0.9530   -0.6560 c3        1 MOL     -0.069886
    157 C52         3.4080    0.0150    0.1580 c3        1 MOL     -0.240879
    158 C53         2.0240   -0.1070   -0.5100 c         1 MOL      0.959872
    159 O21         1.8490   -0.9200   -1.4410 o         1 MOL     -0.801594
    160 O22         1.0730    0.6740   -0.1910 o         1 MOL     -0.801594
    161 H72         5.5050   -1.2090   -1.4620 hn        1 MOL      0.214104
    162 H73         6.3090    1.5240   -0.8950 h1        1 MOL      0.100483
    163 H74         3.9480    0.9770   -1.6840 hc        1 MOL      0.030403
    164 H75         4.2650    1.9610   -0.2500 hc        1 MOL      0.030403
    165 H76         3.3260    0.3290    1.1970 hc        1 MOL      0.060103
    166 H77         3.6980   -1.0320    0.0880 hc        1 MOL      0.060103
    167 N15         6.5210   -0.7050    1.4270 n         1 MOL     -0.161836
    168 C54         7.2990   -0.9160    2.6640 c3        1 MOL     -0.279516
    169 H78         7.5430    0.0480    3.1080 h1        1 MOL      0.113226
    170 H79         6.7100   -1.5020    3.3690 h1        1 MOL      0.113226
    171 H80         8.2200   -1.4500    2.4270 h1        1 MOL      0.113226
    172 H81         6.5110   -1.3210    0.6370 hn        1 MOL      0.188658
    173 Ca1        -1.1490    0.0690   -1.5800 Ca        1 MOL      1.777274
    174 O23        -0.4750    0.1020   -4.4140 oh        1 MOL     -0.872948
    175 H82        -0.6720   -0.6140   -5.0140 ho        1 MOL      0.422957
    176 H83        -0.2160    0.8290   -4.9720 ho        1 MOL      0.422957
    177 O24        -0.6690   -2.5120   -2.2650 oh        1 MOL     -0.872948
    178 H84        -1.0220   -3.3130   -1.8850 ho        1 MOL      0.422957
    179 H85        -0.0980   -2.8100   -2.9660 ho        1 MOL      0.422957
@<TRIPOS>BOND
     1    1    2 1   
     2    1    4 1   
     3    1    5 1   
     4    1    6 1   
     5    2    3 2   
     6    2    7 1   
     7    7    8 1   
     8    7   15 1   
     9    8    9 1   
    10    8   11 1   
    11    8   16 1   
    12    9   10 2   
    13    9   19 1   
    14   11   12 1   
    15   11   17 1   
    16   11   18 1   
    17   12   13 1   
    18   12   14 1   
    19   19   20 1   
    20   19   28 1   
    21   20   21 1   
    22   20   23 1   
    23   20   29 1   
    24   21   22 2   
    25   21   41 1   
    26   23   24 1   
    27   23   30 1   
    28   23   31 1   
    29   24   25 1   
    30   24   32 1   
    31   24   33 1   
    32   25   26 1   
    33   25   34 1   
    34   25   35 1   
    35   26   27 1   
    36   26   36 1   
    37   26   37 1   
    38   27   38 1   
    39   27   39 1   
    40   27   40 1   
    41   41   42 1   
    42   41   49 1   
    43   42   43 1   
    44   42   45 1   
    45   42   50 1   
    46   43   44 2   
    47   43   53 1   
    48   45   46 1   
    49   45   51 1   
    50   45   52 1   
    51   46   47 1   
    52   46   48 1   
    53   53   54 1   
    54   53   57 1   
    55   54   55 1   
    56   54   58 1   
    57   54   59 1   
    58   55   56 2   
    59   55   60 1   
    60   60   61 1   
    61   60   68 1   
    62   61   62 1   
    63   61   64 1   
    64   61   69 1   
    65   62   63 2   
    66   62   74 1   
    67   64   65 1   
    68   64   70 1   
    69   64   71 1   
    70   65   66 1   
    71   65   67 2   
    72   66   72 1   
    73   66   73 1   
    74   74   75 1   
    75   74   78 1   
    76   75   76 1   
    77   75   79 1   
    78   75   80 1   
    79   76   77 2   
    80   76   81 1   
    81   81   82 1   
    82   81   93 1   
    83   82   83 1   
    84   82   85 1   
    85   82   94 1   
    86   83   84 2   
    87   83  102 1   
    88   85   86 1   
    89   85   95 1   
    90   85   96 1   
    91   86   87 ar  
    92   86   88 ar  
    93   87   89 ar  
    94   87   97 1   
    95   88   90 ar  
    96   88   98 1   
    97   89   91 ar  
    98   89   99 1   
    99   90   91 ar  
   100   90  100 1   
   101   91   92 1   
   102   92  101 1   
   103  102  103 1   
   104  102  110 1   
   105  103  104 1   
   106  103  106 1   
   107  103  111 1   
   108  104  105 2   
   109  104  121 1   
   110  106  107 1   
   111  106  108 1   
   112  106  112 1   
   113  107  109 1   
   114  107  113 1   
   115  107  114 1   
   116  108  115 1   
   117  108  116 1   
   118  108  117 1   
   119  109  118 1   
   120  109  119 1   
   121  109  120 1   
   122  121  122 1   
   123  121  127 1   
   124  122  123 1   
   125  122  125 1   
   126  122  128 1   
   127  123  124 2   
   128  123  132 1   
   129  125  126 1   
   130  125  129 1   
   131  125  130 1   
   132  126  131 1   
   133  132  133 1   
   134  132  137 1   
   135  133  134 1   
   136  133  136 1   
   137  133  138 1   
   138  134  135 2   
   139  134  142 1   
   140  136  139 1   
   141  136  140 1   
   142  136  141 1   
   143  142  143 1   
   144  142  147 1   
   145  143  144 1   
   146  143  146 1   
   147  143  148 1   
   148  144  145 2   
   149  144  152 1   
   150  146  149 1   
   151  146  150 1   
   152  146  151 1   
   153  152  153 1   
   154  152  161 1   
   155  153  154 1   
   156  153  156 1   
   157  153  162 1   
   158  154  155 2   
   159  154  167 1   
   160  156  157 1   
   161  156  163 1   
   162  156  164 1   
   163  157  158 1   
   164  157  165 1   
   165  157  166 1   
   166  158  159 1   
   167  158  160 1   
   168  167  168 1   
   169  167  172 1   
   170  168  169 1   
   171  168  170 1   
   172  168  171 1   
   173  174  175 1   
   174  174  176 1   
   175  177  178 1   
   176  177  179 1   
@<TRIPOS>SUBSTRUCTURE
     1 MOL         1 TEMP              0 ****  ****    0 ROOT
