@<TRIPOS>MOLECULE
MOL
  189   185     1     0     0
SMALL
resp


@<TRIPOS>ATOM
      1 C1         -1.4340    3.3900    6.1960 c3        1 MOL     -0.506996
      2 C2         -1.5220    3.0440    4.6530 c         1 MOL      0.709205
      3 O1         -1.2350    1.9440    4.2190 o         1 MOL     -0.607714
      4 H1         -0.4090    3.2510    6.5410 hc        1 MOL      0.131702
      5 H2         -1.7340    4.4250    6.3550 hc        1 MOL      0.131702
      6 H3         -2.0960    2.7290    6.7550 hc        1 MOL      0.131702
      7 N1         -1.9220    3.9350    3.8120 n         1 MOL     -0.527677
      8 C3         -2.3050    3.7340    2.4290 c3        1 MOL      0.264027
      9 C4         -2.0860    5.0330    1.5330 c         1 MOL      0.401406
     10 O2         -2.0300    6.1610    2.0650 o         1 MOL     -0.562175
     11 C5         -3.7850    3.4050    2.4810 c3        1 MOL     -0.263834
     12 C6         -4.3380    3.0420    1.1470 c         1 MOL      0.687450
     13 O3         -3.6430    2.2540    0.4370 o         1 MOL     -0.632655
     14 O4         -5.4700    3.3950    0.8780 o         1 MOL     -0.632655
     15 H4         -2.2870    4.8260    4.1430 hn        1 MOL      0.279995
     16 H5         -1.7870    2.8610    2.0220 h1        1 MOL     -0.054610
     17 H6         -4.3330    4.2480    2.8750 hc        1 MOL      0.045989
     18 H7         -3.9320    2.5680    3.1670 hc        1 MOL      0.045989
     19 N2         -1.9250    4.7970    0.2270 n         1 MOL     -0.096247
     20 C7         -1.9980    5.6470   -0.9460 c3        1 MOL     -0.139720
     21 C8         -2.6460    5.0160   -2.1360 c         1 MOL      0.380874
     22 O5         -2.7500    5.6170   -3.1760 o         1 MOL     -0.547800
     23 C9         -0.5590    6.1720   -1.2700 c3        1 MOL      0.364416
     24 C10         0.7020    5.3240   -1.0910 c3        1 MOL     -0.152864
     25 C11        -0.4450    7.4750   -0.5220 c3        1 MOL     -0.366023
     26 C12         0.7910    4.0800   -2.0330 c3        1 MOL     -0.270291
     27 H8         -1.7940    3.8230    0.0190 hn        1 MOL      0.125029
     28 H9         -2.6040    6.5010   -0.6700 h1        1 MOL      0.126726
     29 H10        -0.4970    6.5970   -2.2780 hc        1 MOL     -0.030328
     30 H11         0.8100    4.9030   -0.0900 hc        1 MOL      0.038231
     31 H12         1.5650    5.9900   -1.2040 hc        1 MOL      0.038231
     32 H13        -0.3820    7.3090    0.5510 hc        1 MOL      0.064754
     33 H14         0.4910    7.9420   -0.7930 hc        1 MOL      0.064754
     34 H15        -1.3190    8.0870   -0.7600 hc        1 MOL      0.064754
     35 H16         1.6910    3.4660   -2.0160 hc        1 MOL      0.088464
     36 H17        -0.0480    3.3900   -1.9050 hc        1 MOL      0.088464
     37 H18         0.7860    4.4740   -3.0440 hc        1 MOL      0.088464
     38 N3         -3.2810    3.8220   -2.0880 n         1 MOL     -0.083763
     39 C13        -4.0290    3.3020   -3.2240 c3        1 MOL      0.003796
     40 C14        -5.3450    2.5310   -2.9930 c         1 MOL      0.298309
     41 O6         -6.0900    2.1750   -3.9910 o         1 MOL     -0.566077
     42 C15        -3.1400    2.5020   -4.0810 c3        1 MOL     -0.227683
     43 C16        -2.3610    1.3890   -3.3400 c         1 MOL      0.868028
     44 O7         -3.0110    0.8580   -2.4560 o         1 MOL     -0.726519
     45 O8         -1.2740    0.9590   -3.7510 o         1 MOL     -0.726519
     46 H19        -3.3460    3.2660   -1.2460 hn        1 MOL      0.030775
     47 H20        -4.3130    4.1170   -3.8910 h1        1 MOL      0.115788
     48 H21        -2.4320    3.1660   -4.5680 hc        1 MOL      0.039995
     49 H22        -3.7720    2.0110   -4.8230 hc        1 MOL      0.039995
     50 N4         -5.7600    2.3130   -1.7850 n         1 MOL     -0.047694
     51 C17        -7.0480    1.6120   -1.5050 c3        1 MOL     -0.235532
     52 C18        -7.1440    0.1180   -1.7240 c         1 MOL      0.593441
     53 O9         -8.2000   -0.3990   -1.4890 o         1 MOL     -0.614831
     54 H23        -5.1780    2.5360   -0.9880 hn        1 MOL      0.085521
     55 H24        -7.8520    2.0800   -2.0770 h1        1 MOL      0.104003
     56 H25        -7.2850    1.8090   -0.4630 h1        1 MOL      0.104003
     57 N5         -6.1160   -0.5650   -2.2140 n         1 MOL     -0.262659
     58 C19        -6.1480   -1.9740   -2.6060 c3        1 MOL     -0.010789
     59 C20        -6.6620   -2.9430   -1.5610 c         1 MOL      0.437955
     60 O10        -7.2520   -3.9910   -1.8880 o         1 MOL     -0.571337
     61 C21        -4.8360   -2.4720   -3.1860 c3        1 MOL     -0.210826
     62 C22        -3.6120   -2.4000   -2.3060 c         1 MOL      0.677718
     63 O11        -3.6490   -1.8370   -1.1940 o         1 MOL     -0.716132
     64 O12        -2.4730   -2.6750   -2.8390 o         1 MOL     -0.716132
     65 H26        -5.3030   -0.0350   -2.4760 hn        1 MOL      0.241516
     66 H27        -6.9290   -1.9350   -3.3680 h1        1 MOL      0.081916
     67 H28        -4.6080   -1.9400   -4.1110 hc        1 MOL      0.083999
     68 H29        -5.0140   -3.4570   -3.5920 hc        1 MOL      0.083999
     69 N6         -6.5560   -2.6000   -0.2830 n         1 MOL     -0.062472
     70 C23        -6.8280   -3.5850    0.7530 c3        1 MOL     -0.271919
     71 C24        -5.5910   -4.0890    1.5550 c         1 MOL      0.589924
     72 O13        -5.8330   -4.8820    2.4680 o         1 MOL     -0.602182
     73 H30        -6.0400   -1.7630   -0.0520 hn        1 MOL      0.102609
     74 H31        -7.2140   -4.5070    0.3230 h1        1 MOL      0.116888
     75 H32        -7.5400   -3.1830    1.4790 h1        1 MOL      0.116888
     76 N7         -4.3480   -3.7790    1.1860 n         1 MOL     -0.477972
     77 C25        -3.1110   -4.3920    1.8270 c3        1 MOL      0.190592
     78 C26        -2.0780   -3.2780    1.9470 c         1 MOL      0.597534
     79 O14        -1.9330   -2.5500    0.9680 o         1 MOL     -0.504004
     80 C27        -2.5700   -5.5700    1.0710 c3        1 MOL     -0.084671
     81 C28        -2.5030   -5.4330   -0.4510 c3        1 MOL     -0.142883
     82 C29        -2.2700   -6.7550   -1.2000 c         1 MOL      0.690443
     83 N8         -1.9880   -6.6950   -2.4410 n         1 MOL     -0.807354
     84 O15        -2.4040   -7.8420   -0.7210 o         1 MOL     -0.614035
     85 H33        -4.3130   -3.1540    0.3930 hn        1 MOL      0.302125
     86 H34        -3.3790   -4.6810    2.8420 h1        1 MOL      0.006526
     87 H35        -3.2620   -6.3550    1.3720 hc        1 MOL      0.039363
     88 H36        -1.5990   -5.8520    1.4580 hc        1 MOL      0.039363
     89 H37        -1.8890   -4.6240   -0.8530 hc        1 MOL      0.070001
     90 H38        -3.4820   -5.1340   -0.8280 hc        1 MOL      0.070001
     91 H39        -1.9370   -5.8010   -2.8960 hn        1 MOL      0.358155
     92 H40        -1.9410   -7.5470   -2.9860 hn        1 MOL      0.358155
     93 N9         -1.2840   -3.2440    3.0440 n         1 MOL     -0.747657
     94 C30        -0.1620   -2.3870    3.1130 c3        1 MOL      0.119876
     95 C31         0.9910   -3.0340    2.3140 c         1 MOL      0.517448
     96 O16         1.3110   -4.2490    2.4560 o         1 MOL     -0.611897
     97 C32         0.1840   -2.1610    4.6460 c3        1 MOL      0.160174
     98 C33         0.7330   -3.4050    5.4090 c3        1 MOL     -0.236830
     99 C34         1.1720   -1.0110    4.8620 c3        1 MOL     -0.236830
    100 H41        -1.2700   -4.0700    3.6340 hn        1 MOL      0.365636
    101 H42        -0.4320   -1.4150    2.6950 h1        1 MOL      0.142933
    102 H43        -0.7240   -1.7640    5.0940 hc        1 MOL     -0.008404
    103 H44         0.7780   -3.2090    6.4810 hc        1 MOL      0.054738
    104 H45         0.0450   -4.2540    5.3160 hc        1 MOL      0.054738
    105 H46         1.7570   -3.6750    5.1640 hc        1 MOL      0.054738
    106 H47         1.2280   -0.7980    5.9330 hc        1 MOL      0.054738
    107 H48         2.1490   -1.3240    4.5030 hc        1 MOL      0.054738
    108 H49         0.8310   -0.1670    4.2630 hc        1 MOL      0.054738
    109 N10         1.6010   -2.2290    1.4920 n         1 MOL     -0.133626
    110 C35         2.6500   -2.5420    0.4980 c3        1 MOL      0.307487
    111 C36         3.9820   -2.0150    0.9630 c         1 MOL      0.171892
    112 O17         4.0900   -1.1760    1.9520 o         1 MOL     -0.500810
    113 C37         2.2450   -1.8460   -0.8010 c3        1 MOL     -0.238845
    114 C38         3.2480   -1.6020   -1.8710 c         1 MOL      0.780851
    115 N11         3.6360   -2.5880   -2.6730 n         1 MOL     -0.836326
    116 O18         3.8260   -0.5690   -1.8900 o         1 MOL     -0.525911
    117 H50         1.2230   -1.2970    1.4440 hn        1 MOL     -0.035909
    118 H51         2.7270   -3.6190    0.3440 h1        1 MOL      0.003013
    119 H52         1.8320   -0.8560   -0.5960 hc        1 MOL      0.056785
    120 H53         1.4290   -2.4510   -1.2070 hc        1 MOL      0.056785
    121 H54         3.1440   -3.4700   -2.6180 hn        1 MOL      0.371585
    122 H55         4.1100   -2.2870   -3.5110 hn        1 MOL      0.371585
    123 N12         5.1170   -2.3880    0.3460 n         1 MOL     -0.090130
    124 C39         6.4610   -2.1090    0.8570 c3        1 MOL     -0.005613
    125 C40         6.8030   -0.6170    0.7690 c         1 MOL      0.440073
    126 O19         7.7030   -0.1470    1.4850 o         1 MOL     -0.579592
    127 C41         7.4800   -3.0260    0.1910 c3        1 MOL     -0.116762
    128 C42         7.7360   -2.7760   -1.2970 ca        1 MOL      0.039066
    129 C43         8.6750   -1.8220   -1.7040 ca        1 MOL     -0.133879
    130 C44         7.0180   -3.4630   -2.2910 ca        1 MOL     -0.133879
    131 C45         8.8210   -1.4870   -3.1130 ca        1 MOL     -0.327876
    132 C46         7.2820   -3.2430   -3.6710 ca        1 MOL     -0.327876
    133 C47         8.1250   -2.2120   -4.1190 ca        1 MOL      0.402473
    134 O20         8.2320   -1.8590   -5.4630 oh        1 MOL     -0.551386
    135 H56         5.0160   -2.9800   -0.4600 hn        1 MOL      0.126229
    136 H57         6.4720   -2.4220    1.8990 h1        1 MOL      0.098350
    137 H58         7.2070   -4.0610    0.3590 hc        1 MOL      0.045325
    138 H59         8.4430   -2.8840    0.6830 hc        1 MOL      0.045325
    139 H60         9.0600   -1.1260   -0.9730 ha        1 MOL      0.128098
    140 H61         6.3310   -4.2390   -1.9910 ha        1 MOL      0.128098
    141 H62         9.3990   -0.6170   -3.3570 ha        1 MOL      0.168086
    142 H63         6.6560   -3.8120   -4.3410 ha        1 MOL      0.168086
    143 H64         8.7870   -1.1000   -5.6620 ho        1 MOL      0.416292
    144 N13         6.1700    0.1760   -0.0990 n         1 MOL     -0.015619
    145 C48         6.2020    1.6750   -0.0920 c3        1 MOL     -0.134776
    146 C49         5.2600    2.3690    0.9140 c         1 MOL      0.335940
    147 O21         5.2880    3.6010    1.1420 o         1 MOL     -0.516425
    148 C50         6.0080    2.1990   -1.5060 c3        1 MOL      0.085848
    149 C51         6.9060    1.5870   -2.5470 c3        1 MOL     -0.537197
    150 C52         6.7720    2.2940   -3.8770 c         1 MOL      0.763325
    151 O22         5.9200    1.9260   -4.6920 o         1 MOL     -0.748615
    152 O23         7.3970    3.3670   -4.1440 o         1 MOL     -0.748615
    153 H65         5.5370   -0.1930   -0.7830 hn        1 MOL      0.116023
    154 H66         7.2170    1.9730    0.1700 h1        1 MOL      0.102402
    155 H67         6.1370    3.2750   -1.4190 hc        1 MOL      0.083044
    156 H68         4.9650    2.0540   -1.8060 hc        1 MOL      0.083044
    157 H69         6.6120    0.5600   -2.7730 hc        1 MOL      0.118058
    158 H70         7.9640    1.5560   -2.2790 hc        1 MOL      0.118058
    159 N14         4.4580    1.5560    1.6840 n         1 MOL     -0.163652
    160 C53         3.5550    1.9310    2.7730 c3        1 MOL     -0.165992
    161 C54         3.9550    1.4590    4.1830 c         1 MOL      0.399899
    162 O24         3.3250    1.7840    5.2230 o         1 MOL     -0.538149
    163 C55         2.1350    1.4490    2.3380 c3        1 MOL     -0.090545
    164 C56         1.5620    2.0580    1.0470 c3        1 MOL      0.271123
    165 C57         0.2280    1.4020    0.6690 c         1 MOL      0.803219
    166 O25        -0.6270    2.0340    0.0400 o         1 MOL     -0.799251
    167 O26         0.0090    0.1990    1.0130 o         1 MOL     -0.799251
    168 H71         4.5330    0.5620    1.5290 hn        1 MOL      0.093721
    169 H72         3.5710    3.0170    2.8730 h1        1 MOL      0.135268
    170 H73         1.5250    1.8010    3.1810 hc        1 MOL      0.077890
    171 H74         2.0910    0.3600    2.2790 hc        1 MOL      0.077890
    172 H75         2.2660    1.9900    0.2110 hc        1 MOL     -0.033514
    173 H76         1.5380    3.1210    1.2620 hc        1 MOL     -0.033514
    174 N15         5.1760    0.9410    4.2690 n         1 MOL     -0.112339
    175 C58         5.8360    0.6140    5.5210 c3        1 MOL     -0.045323
    176 H77         6.2300    1.5250    5.9730 h1        1 MOL      0.037403
    177 H78         5.1190    0.1530    6.2010 h1        1 MOL      0.037403
    178 H79         6.6540   -0.0800    5.3310 h1        1 MOL      0.037403
    179 H80         5.6030    0.7160    3.3800 hn        1 MOL      0.185983
    180 Ca1        -2.4110   -0.0020   -0.0090 Ca        1 MOL      1.741740
    181 O27        -2.4220    0.1740    2.5380 oh        1 MOL     -0.855475
    182 H81        -3.0890    0.2770    3.2280 ho        1 MOL      0.423083
    183 H82        -1.6730    0.6820    2.8510 ho        1 MOL      0.423083
    184 O28        -5.2440   -0.3950    1.3040 oh        1 MOL     -0.855475
    185 H83        -6.1010   -0.0250    1.0750 ho        1 MOL      0.423083
    186 H84        -5.1830   -0.2670    2.2530 ho        1 MOL      0.423083
    187 O29        -0.7240   -1.0020   -2.0000 oh        1 MOL     -0.855475
    188 H85        -1.3230   -1.6910   -2.2970 ho        1 MOL      0.423083
    189 H86        -0.9670   -0.2450   -2.5270 ho        1 MOL      0.423083
@<TRIPOS>BOND
     1    1    2 1   
     2    1    4 1   
     3    1    5 1   
     4    1    6 1   
     5    2    3 2   
     6    2    7 1   
     7    7    8 1   
     8    7   15 1   
     9    8    9 1   
    10    8   11 1   
    11    8   16 1   
    12    9   10 2   
    13    9   19 1   
    14   11   12 1   
    15   11   17 1   
    16   11   18 1   
    17   12   13 1   
    18   12   14 1   
    19   19   20 1   
    20   19   27 1   
    21   20   21 1   
    22   20   23 1   
    23   20   28 1   
    24   21   22 2   
    25   21   38 1   
    26   23   24 1   
    27   23   25 1   
    28   23   29 1   
    29   24   26 1   
    30   24   30 1   
    31   24   31 1   
    32   25   32 1   
    33   25   33 1   
    34   25   34 1   
    35   26   35 1   
    36   26   36 1   
    37   26   37 1   
    38   38   39 1   
    39   38   46 1   
    40   39   40 1   
    41   39   42 1   
    42   39   47 1   
    43   40   41 2   
    44   40   50 1   
    45   42   43 1   
    46   42   48 1   
    47   42   49 1   
    48   43   44 1   
    49   43   45 1   
    50   50   51 1   
    51   50   54 1   
    52   51   52 1   
    53   51   55 1   
    54   51   56 1   
    55   52   53 2   
    56   52   57 1   
    57   57   58 1   
    58   57   65 1   
    59   58   59 1   
    60   58   61 1   
    61   58   66 1   
    62   59   60 2   
    63   59   69 1   
    64   61   62 1   
    65   61   67 1   
    66   61   68 1   
    67   62   63 1   
    68   62   64 1   
    69   69   70 1   
    70   69   73 1   
    71   70   71 1   
    72   70   74 1   
    73   70   75 1   
    74   71   72 2   
    75   71   76 1   
    76   76   77 1   
    77   76   85 1   
    78   77   78 1   
    79   77   80 1   
    80   77   86 1   
    81   78   79 2   
    82   78   93 1   
    83   80   81 1   
    84   80   87 1   
    85   80   88 1   
    86   81   82 1   
    87   81   89 1   
    88   81   90 1   
    89   82   83 1   
    90   82   84 2   
    91   83   91 1   
    92   83   92 1   
    93   93   94 1   
    94   93  100 1   
    95   94   95 1   
    96   94   97 1   
    97   94  101 1   
    98   95   96 2   
    99   95  109 1   
   100   97   98 1   
   101   97   99 1   
   102   97  102 1   
   103   98  103 1   
   104   98  104 1   
   105   98  105 1   
   106   99  106 1   
   107   99  107 1   
   108   99  108 1   
   109  109  110 1   
   110  109  117 1   
   111  110  111 1   
   112  110  113 1   
   113  110  118 1   
   114  111  112 2   
   115  111  123 1   
   116  113  114 1   
   117  113  119 1   
   118  113  120 1   
   119  114  115 1   
   120  114  116 2   
   121  115  121 1   
   122  115  122 1   
   123  123  124 1   
   124  123  135 1   
   125  124  125 1   
   126  124  127 1   
   127  124  136 1   
   128  125  126 2   
   129  125  144 1   
   130  127  128 1   
   131  127  137 1   
   132  127  138 1   
   133  128  129 ar  
   134  128  130 ar  
   135  129  131 ar  
   136  129  139 1   
   137  130  132 ar  
   138  130  140 1   
   139  131  133 ar  
   140  131  141 1   
   141  132  133 ar  
   142  132  142 1   
   143  133  134 1   
   144  134  143 1   
   145  144  145 1   
   146  144  153 1   
   147  145  146 1   
   148  145  148 1   
   149  145  154 1   
   150  146  147 2   
   151  146  159 1   
   152  148  149 1   
   153  148  155 1   
   154  148  156 1   
   155  149  150 1   
   156  149  157 1   
   157  149  158 1   
   158  150  151 1   
   159  150  152 1   
   160  159  160 1   
   161  159  168 1   
   162  160  161 1   
   163  160  163 1   
   164  160  169 1   
   165  161  162 2   
   166  161  174 1   
   167  163  164 1   
   168  163  170 1   
   169  163  171 1   
   170  164  165 1   
   171  164  172 1   
   172  164  173 1   
   173  165  166 1   
   174  165  167 1   
   175  174  175 1   
   176  174  179 1   
   177  175  176 1   
   178  175  177 1   
   179  175  178 1   
   180  181  182 1   
   181  181  183 1   
   182  184  185 1   
   183  184  186 1   
   184  187  188 1   
   185  187  189 1   
@<TRIPOS>SUBSTRUCTURE
     1 MOL         1 TEMP              0 ****  ****    0 ROOT
