@<TRIPOS>MOLECULE
MOL
  183   181     1     0     0
SMALL
resp


@<TRIPOS>ATOM
      1 C1         -0.3570    2.5490    6.2650 c3        1 MOL     -0.306941
      2 C2         -0.8910    2.4220    4.7690 c         1 MOL      0.750619
      3 O1         -0.2020    2.8600    3.8540 o         1 MOL     -0.593460
      4 H1          0.7290    2.4560    6.2710 hc        1 MOL      0.068456
      5 H2         -0.6400    3.5200    6.6710 hc        1 MOL      0.068456
      6 H3         -0.7920    1.7580    6.8750 hc        1 MOL      0.068456
      7 N1         -2.0950    1.9430    4.5260 n         1 MOL     -0.700682
      8 C3         -2.6260    1.6960    3.1830 c3        1 MOL      0.136145
      9 C4         -2.9990    3.0580    2.5050 c         1 MOL      0.710338
     10 O2         -3.9080    3.7520    2.9920 o         1 MOL     -0.603705
     11 C5         -3.7480    0.7110    3.2360 c3        1 MOL     -0.200139
     12 C6         -4.2930    0.3000    1.8690 c         1 MOL      0.790840
     13 O3         -5.3050   -0.4280    1.8370 o         1 MOL     -0.668666
     14 O4         -3.6630    0.6940    0.8650 o         1 MOL     -0.668666
     15 H4         -2.6380    1.6180    5.3130 hn        1 MOL      0.346251
     16 H5         -1.7870    1.2400    2.6580 h1        1 MOL      0.082805
     17 H6         -4.4970    1.1830    3.8710 hc        1 MOL      0.031703
     18 H7         -3.3670   -0.1630    3.7590 hc        1 MOL      0.031703
     19 N2         -2.4680    3.4610    1.3320 n         1 MOL     -0.552404
     20 C7         -2.7620    4.7800    0.7080 c3        1 MOL     -0.058259
     21 C8         -3.8110    4.6670   -0.4520 c         1 MOL      0.603338
     22 O5         -4.8270    5.3730   -0.3910 o         1 MOL     -0.615666
     23 C9         -1.4400    5.4520    0.1400 c3        1 MOL      0.113457
     24 C10        -0.2510    5.4510    1.1850 c3        1 MOL      0.224431
     25 C11        -1.5040    6.8640   -0.4140 c3        1 MOL     -0.312121
     26 C12         1.1590    5.5540    0.5840 c3        1 MOL     -0.068456
     27 H8         -1.7660    2.8880    0.8900 hn        1 MOL      0.268711
     28 H9         -3.1430    5.4550    1.4720 h1        1 MOL      0.079883
     29 H10        -1.1300    4.7320   -0.6240 hc        1 MOL     -0.018160
     30 H11        -0.1770    4.5120    1.7380 hc        1 MOL     -0.052318
     31 H12        -0.2820    6.2330    1.9380 hc        1 MOL     -0.052318
     32 H13        -0.6310    7.0710   -1.0330 hc        1 MOL      0.059594
     33 H14        -2.4460    6.9210   -0.9730 hc        1 MOL      0.059594
     34 H15        -1.5100    7.6060    0.3870 hc        1 MOL      0.059594
     35 H16         1.4380    4.8630   -0.2010 hc        1 MOL      0.001622
     36 H17         1.3170    6.5370    0.1460 hc        1 MOL      0.001622
     37 H18         1.8150    5.4160    1.4530 hc        1 MOL      0.001622
     38 N3         -3.5530    3.7970   -1.3720 n         1 MOL     -0.340201
     39 C13        -4.4990    3.5680   -2.4950 c3        1 MOL      0.017438
     40 C14        -5.8180    2.8900   -2.0450 c         1 MOL      0.388680
     41 O6         -6.7810    2.9300   -2.8630 o         1 MOL     -0.545706
     42 C15        -3.9330    2.9440   -3.8010 c3        1 MOL     -0.308476
     43 C16        -3.2510    1.6340   -3.5820 c         1 MOL      0.855014
     44 O7         -2.3490    1.3390   -4.4090 o         1 MOL     -0.758627
     45 O8         -3.4270    0.9280   -2.5820 o         1 MOL     -0.758627
     46 H19        -2.7530    3.2180   -1.2040 hn        1 MOL      0.294110
     47 H20        -4.7140    4.5630   -2.8850 h1        1 MOL      0.072481
     48 H21        -3.1780    3.6420   -4.1420 hc        1 MOL      0.087729
     49 H22        -4.7750    2.7740   -4.4740 hc        1 MOL      0.087729
     50 N4         -5.8750    2.3980   -0.8280 n         1 MOL      0.010063
     51 C17        -7.1130    1.9840   -0.1860 c3        1 MOL     -0.411654
     52 C18        -7.6920    0.6420   -0.7120 c         1 MOL      0.702303
     53 O9         -8.8830    0.5440   -1.1450 o         1 MOL     -0.638733
     54 H23        -5.0340    2.4080   -0.2600 hn        1 MOL      0.194517
     55 H24        -7.7550    2.8080   -0.4920 h1        1 MOL      0.139548
     56 H25        -6.9520    1.9010    0.8930 h1        1 MOL      0.139548
     57 N5         -7.0740   -0.5010   -0.4900 n         1 MOL     -0.303117
     58 C19        -7.5600   -1.8310   -0.9810 c3        1 MOL      0.002424
     59 C20        -7.4360   -2.9390    0.0500 c         1 MOL      0.393049
     60 O10        -7.6620   -4.1340   -0.2300 o         1 MOL     -0.555081
     61 C21        -6.7470   -2.1570   -2.2600 c3        1 MOL     -0.200401
     62 C22        -5.2290   -2.0030   -2.0750 c         1 MOL      0.906469
     63 O11        -4.4730   -2.0750   -3.0770 o         1 MOL     -0.805917
     64 O12        -4.6300   -1.7410   -0.9930 o         1 MOL     -0.805917
     65 H26        -6.2230   -0.5130    0.0500 hn        1 MOL     -0.010092
     66 H27        -8.6210   -1.8070   -1.2170 h1        1 MOL      0.102763
     67 H28        -7.0370   -1.4160   -3.0080 hc        1 MOL      0.067903
     68 H29        -6.9430   -3.1500   -2.6600 hc        1 MOL      0.067903
     69 N6         -6.7860   -2.6160    1.1750 n         1 MOL     -0.202597
     70 C23        -6.5640   -3.4430    2.3240 c3        1 MOL     -0.162671
     71 C24        -5.2110   -4.0910    2.3230 c         1 MOL      0.644759
     72 O13        -5.1280   -5.0540    3.0650 o         1 MOL     -0.601655
     73 H30        -6.3440   -1.7220    1.1790 hn        1 MOL      0.274619
     74 H31        -7.4230   -4.1120    2.4580 h1        1 MOL      0.072303
     75 H32        -6.4920   -2.6800    3.0850 h1        1 MOL      0.072303
     76 N7         -4.2250   -3.6080    1.4840 n         1 MOL     -0.283311
     77 C25        -2.8700   -4.2220    1.6890 c3        1 MOL     -0.085766
     78 C26        -1.8890   -3.0940    1.7750 c         1 MOL      0.717401
     79 O14        -2.2370   -1.8770    1.6720 o         1 MOL     -0.628143
     80 C27        -2.7500   -5.3460    0.6870 c3        1 MOL      0.066737
     81 C28        -2.9080   -5.0330   -0.8270 c3        1 MOL     -0.302995
     82 C29        -1.7280   -4.2480   -1.4200 c         1 MOL      0.577434
     83 N8         -0.9770   -4.8440   -2.3120 n         1 MOL     -0.643036
     84 O15        -1.4070   -3.1680   -0.9070 o         1 MOL     -0.499357
     85 H33        -4.4000   -2.7090    1.0680 hn        1 MOL      0.206082
     86 H34        -2.8580   -4.6760    2.6810 h1        1 MOL      0.055949
     87 H35        -3.4000   -6.1720    0.9920 hc        1 MOL      0.015802
     88 H36        -1.8000   -5.8480    0.8120 hc        1 MOL      0.015802
     89 H37        -3.8040   -4.4720   -1.0810 hc        1 MOL      0.087570
     90 H38        -2.9610   -6.0100   -1.2940 hc        1 MOL      0.087570
     91 H39        -1.4380   -5.6330   -2.7510 hn        1 MOL      0.318672
     92 H40        -0.1720   -4.3690   -2.7090 hn        1 MOL      0.318672
     93 N9         -0.5710   -3.3990    1.9450 n         1 MOL     -0.604548
     94 C30         0.4880   -2.4460    2.0050 c3        1 MOL     -0.031717
     95 C31         1.7440   -2.9810    1.1370 c         1 MOL      0.515037
     96 O16         2.3190   -4.0500    1.3820 o         1 MOL     -0.610002
     97 C32         0.9700   -2.0940    3.4610 c3        1 MOL      0.319339
     98 C33         2.1500   -1.1410    3.5950 c3        1 MOL     -0.285488
     99 C34        -0.0970   -1.5900    4.3600 c3        1 MOL     -0.285488
    100 H41        -0.3960   -4.3940    1.8920 hn        1 MOL      0.321959
    101 H42         0.1950   -1.5200    1.5070 h1        1 MOL      0.144322
    102 H43         1.3410   -3.0400    3.8570 hc        1 MOL     -0.053583
    103 H44         2.7430   -1.3160    4.4930 hc        1 MOL      0.054753
    104 H45         2.8460   -1.3090    2.7680 hc        1 MOL      0.054753
    105 H46         1.7490   -0.1360    3.4710 hc        1 MOL      0.054753
    106 H47         0.2780   -1.5660    5.3810 hc        1 MOL      0.054753
    107 H48        -0.3290   -0.5660    4.0530 hc        1 MOL      0.054753
    108 H49        -1.0050   -2.1840    4.3150 hc        1 MOL      0.054753
    109 N10         2.0740   -2.3150    0.0630 n         1 MOL     -0.037093
    110 C35         3.1780   -2.6650   -0.8380 c3        1 MOL     -0.004859
    111 C36         4.4960   -2.0470   -0.2570 c         1 MOL      0.411989
    112 O17         4.3720   -1.0950    0.5050 o         1 MOL     -0.325419
    113 C37         2.8370   -2.2520   -2.2320 c3        1 MOL     -0.259035
    114 C38         1.6270   -2.9120   -2.8100 c         1 MOL      0.669092
    115 N11         0.6210   -2.1640   -3.1420 n         1 MOL     -0.681386
    116 O18         1.6090   -4.1090   -3.0940 o         1 MOL     -0.596396
    117 H50         1.6190   -1.4170    0.0170 hn        1 MOL     -0.046788
    118 H51         3.2700   -3.7280   -1.0630 h1        1 MOL      0.056125
    119 H52         3.6500   -2.4460   -2.9340 hc        1 MOL      0.072379
    120 H53         2.6080   -1.1830   -2.1970 hc        1 MOL      0.072379
    121 H54         0.7860   -1.1790   -3.0100 hn        1 MOL      0.367911
    122 H55        -0.2460   -2.4430   -3.5710 hn        1 MOL      0.367911
    123 N12         5.6440   -2.3240   -0.8460 n         1 MOL     -0.530612
    124 C39         6.9270   -1.7380   -0.3430 c3        1 MOL      0.055526
    125 C40         6.9440   -0.1280   -0.3830 c         1 MOL      0.707087
    126 O19         7.2820    0.5290    0.5280 o         1 MOL     -0.525180
    127 C41         8.1630   -2.4000   -1.0180 c3        1 MOL     -0.131726
    128 C42         9.3770   -1.9250   -0.3230 ca        1 MOL     -0.032157
    129 C43         9.7580   -2.3530    0.9350 ca        1 MOL     -0.131138
    130 C44        10.2070   -0.9910   -0.9260 ca        1 MOL     -0.131138
    131 C45        10.9380   -1.8810    1.5760 ca        1 MOL     -0.279393
    132 C46        11.4530   -0.5780   -0.4480 ca        1 MOL     -0.279393
    133 C47        11.7580   -0.9810    0.8670 ca        1 MOL      0.375158
    134 O20        12.8720   -0.4930    1.4350 oh        1 MOL     -0.515848
    135 H56         5.5800   -2.8640   -1.6970 hn        1 MOL      0.329577
    136 H57         6.9040   -1.9550    0.7190 h1        1 MOL      0.095913
    137 H58         8.2630   -2.1670   -2.0740 hc        1 MOL      0.076208
    138 H59         8.1960   -3.4860   -0.9390 hc        1 MOL      0.076208
    139 H60         9.1460   -3.0720    1.4560 ha        1 MOL      0.126449
    140 H61         9.8530   -0.6260   -1.8810 ha        1 MOL      0.126449
    141 H62        11.1970   -2.3090    2.5330 ha        1 MOL      0.147028
    142 H63        12.0990   -0.0410   -1.1320 ha        1 MOL      0.147028
    143 H64        13.3300    0.1030    0.8420 ho        1 MOL      0.368593
    144 N13         6.3060    0.4770   -1.4040 n         1 MOL     -0.568206
    145 C48         6.3330    1.9290   -1.6390 c3        1 MOL     -0.041150
    146 C49         5.4290    2.6710   -0.6700 c         1 MOL      0.409251
    147 O21         5.6420    3.8420   -0.3370 o         1 MOL     -0.525356
    148 C50         5.8870    2.1240   -3.0900 c3        1 MOL      0.082723
    149 C51         4.4320    1.6190   -3.3630 c3        1 MOL     -0.242484
    150 C52         4.3340    1.5420   -4.8560 c         1 MOL      0.752267
    151 O22         4.5540    0.4160   -5.3360 o         1 MOL     -0.740039
    152 O23         4.1990    2.5180   -5.6090 o         1 MOL     -0.740039
    153 H65         5.8100   -0.0370   -2.1180 hn        1 MOL      0.292265
    154 H66         7.3300    2.3610   -1.5810 h1        1 MOL      0.081267
    155 H67         6.4810    1.4710   -3.7160 hc        1 MOL      0.015391
    156 H68         6.1410    3.1240   -3.4420 hc        1 MOL      0.015391
    157 H69         3.7520    2.3590   -2.9540 hc        1 MOL     -0.005098
    158 H70         4.2580    0.6740   -2.8460 hc        1 MOL     -0.005098
    159 N14         4.3160    2.0100   -0.1970 n         1 MOL     -0.147337
    160 C53         3.5350    2.5170    0.9020 c3        1 MOL     -0.076687
    161 C54         4.1550    2.2560    2.3020 c         1 MOL      0.429825
    162 O24         3.9690    3.0140    3.2570 o         1 MOL     -0.543624
    163 C55         2.1090    2.0120    0.9340 c3        1 MOL     -0.059774
    164 C56         1.5400    1.8170   -0.5210 c3        1 MOL     -0.281735
    165 C57         0.1910    1.0660   -0.5050 c         1 MOL      0.736833
    166 O25        -0.9160    1.6320   -0.5500 o         1 MOL     -0.744863
    167 O26         0.0710   -0.1820   -0.4220 o         1 MOL     -0.744863
    168 H71         4.1020    1.0870   -0.5480 hn        1 MOL      0.363237
    169 H72         3.4660    3.5970    0.7590 h1        1 MOL      0.076096
    170 H73         1.4210    2.6650    1.4670 hc        1 MOL      0.101891
    171 H74         2.1500    1.0220    1.3820 hc        1 MOL      0.101891
    172 H75         2.2590    1.3220   -1.1740 hc        1 MOL      0.105069
    173 H76         1.3830    2.7060   -1.1230 hc        1 MOL      0.105069
    174 N15         4.9540    1.1710    2.4020 n         1 MOL     -0.010411
    175 C58         5.6310    0.8110    3.6750 c3        1 MOL     -0.332009
    176 H77         6.7050    0.9710    3.5720 h1        1 MOL      0.112949
    177 H78         5.2460    1.4350    4.4820 h1        1 MOL      0.112949
    178 H79         5.4410   -0.2380    3.9040 h1        1 MOL      0.112949
    179 H80         5.0690    0.6350    1.5540 hn        1 MOL     -0.020682
    180 Ca1        -2.4170   -0.6540   -0.8630 Ca        1 MOL      1.643468
    181 O27        -2.0160   -1.3940   -3.6090 oh        1 MOL     -0.943635
    182 H81        -2.1900   -0.5290   -3.9950 ho        1 MOL      0.462985
    183 H82        -2.8670   -1.6770   -3.2870 ho        1 MOL      0.462985
@<TRIPOS>BOND
     1    1    2 1   
     2    1    4 1   
     3    1    5 1   
     4    1    6 1   
     5    2    3 2   
     6    2    7 1   
     7    7    8 1   
     8    7   15 1   
     9    8    9 1   
    10    8   11 1   
    11    8   16 1   
    12    9   10 2   
    13    9   19 1   
    14   11   12 1   
    15   11   17 1   
    16   11   18 1   
    17   12   13 1   
    18   12   14 1   
    19   19   20 1   
    20   19   27 1   
    21   20   21 1   
    22   20   23 1   
    23   20   28 1   
    24   21   22 2   
    25   21   38 1   
    26   23   24 1   
    27   23   25 1   
    28   23   29 1   
    29   24   26 1   
    30   24   30 1   
    31   24   31 1   
    32   25   32 1   
    33   25   33 1   
    34   25   34 1   
    35   26   35 1   
    36   26   36 1   
    37   26   37 1   
    38   38   39 1   
    39   38   46 1   
    40   39   40 1   
    41   39   42 1   
    42   39   47 1   
    43   40   41 2   
    44   40   50 1   
    45   42   43 1   
    46   42   48 1   
    47   42   49 1   
    48   43   44 1   
    49   43   45 1   
    50   50   51 1   
    51   50   54 1   
    52   51   52 1   
    53   51   55 1   
    54   51   56 1   
    55   52   53 2   
    56   52   57 1   
    57   57   58 1   
    58   57   65 1   
    59   58   59 1   
    60   58   61 1   
    61   58   66 1   
    62   59   60 2   
    63   59   69 1   
    64   61   62 1   
    65   61   67 1   
    66   61   68 1   
    67   62   63 1   
    68   62   64 1   
    69   69   70 1   
    70   69   73 1   
    71   70   71 1   
    72   70   74 1   
    73   70   75 1   
    74   71   72 2   
    75   71   76 1   
    76   76   77 1   
    77   76   85 1   
    78   77   78 1   
    79   77   80 1   
    80   77   86 1   
    81   78   79 2   
    82   78   93 1   
    83   80   81 1   
    84   80   87 1   
    85   80   88 1   
    86   81   82 1   
    87   81   89 1   
    88   81   90 1   
    89   82   83 1   
    90   82   84 2   
    91   83   91 1   
    92   83   92 1   
    93   93   94 1   
    94   93  100 1   
    95   94   95 1   
    96   94   97 1   
    97   94  101 1   
    98   95   96 2   
    99   95  109 1   
   100   97   98 1   
   101   97   99 1   
   102   97  102 1   
   103   98  103 1   
   104   98  104 1   
   105   98  105 1   
   106   99  106 1   
   107   99  107 1   
   108   99  108 1   
   109  109  110 1   
   110  109  117 1   
   111  110  111 1   
   112  110  113 1   
   113  110  118 1   
   114  111  112 2   
   115  111  123 1   
   116  113  114 1   
   117  113  119 1   
   118  113  120 1   
   119  114  115 1   
   120  114  116 2   
   121  115  121 1   
   122  115  122 1   
   123  123  124 1   
   124  123  135 1   
   125  124  125 1   
   126  124  127 1   
   127  124  136 1   
   128  125  126 2   
   129  125  144 1   
   130  127  128 1   
   131  127  137 1   
   132  127  138 1   
   133  128  129 ar  
   134  128  130 ar  
   135  129  131 ar  
   136  129  139 1   
   137  130  132 ar  
   138  130  140 1   
   139  131  133 ar  
   140  131  141 1   
   141  132  133 ar  
   142  132  142 1   
   143  133  134 1   
   144  134  143 1   
   145  144  145 1   
   146  144  153 1   
   147  145  146 1   
   148  145  148 1   
   149  145  154 1   
   150  146  147 2   
   151  146  159 1   
   152  148  149 1   
   153  148  155 1   
   154  148  156 1   
   155  149  150 1   
   156  149  157 1   
   157  149  158 1   
   158  150  151 1   
   159  150  152 1   
   160  159  160 1   
   161  159  168 1   
   162  160  161 1   
   163  160  163 1   
   164  160  169 1   
   165  161  162 2   
   166  161  174 1   
   167  163  164 1   
   168  163  170 1   
   169  163  171 1   
   170  164  165 1   
   171  164  172 1   
   172  164  173 1   
   173  165  166 1   
   174  165  167 1   
   175  174  175 1   
   176  174  179 1   
   177  175  176 1   
   178  175  177 1   
   179  175  178 1   
   180  181  182 1   
   181  181  183 1   
@<TRIPOS>SUBSTRUCTURE
     1 MOL         1 TEMP              0 ****  ****    0 ROOT
