@<TRIPOS>MOLECULE
MOL
  175   173     1     0     0
SMALL
resp


@<TRIPOS>ATOM
      1 C1          0.1830    3.4190    5.7810 c3        1 MOL     -0.394115
      2 C2         -0.3580    3.6380    4.2960 c         1 MOL      0.712664
      3 O1          0.3850    3.9340    3.3640 o         1 MOL     -0.553650
      4 H1         -0.3770    2.6130    6.2560 hc        1 MOL      0.094908
      5 H2          1.2400    3.1560    5.7490 hc        1 MOL      0.094908
      6 H3          0.0530    4.3370    6.3550 hc        1 MOL      0.094908
      7 N1         -1.6640    3.4690    4.0820 n         1 MOL     -0.618340
      8 C3         -2.2310    3.3170    2.7490 c3        1 MOL      0.154957
      9 C4         -2.4160    4.5870    1.9410 c         1 MOL      0.665404
     10 O2         -2.8200    5.6200    2.5070 o         1 MOL     -0.587508
     11 C5         -3.5850    2.6860    2.9340 c3        1 MOL     -0.387835
     12 C6         -4.3100    2.2880    1.6820 c         1 MOL      0.777787
     13 O3         -5.5610    2.2600    1.6550 o         1 MOL     -0.672736
     14 O4         -3.6790    1.9610    0.5800 o         1 MOL     -0.672736
     15 H4         -2.2930    3.3660    4.8710 hn        1 MOL      0.321732
     16 H5         -1.5650    2.5850    2.2770 h1        1 MOL      0.011496
     17 H6         -4.2250    3.3720    3.4770 hc        1 MOL      0.079999
     18 H7         -3.5200    1.7490    3.4860 hc        1 MOL      0.079999
     19 N2         -2.2050    4.5040    0.6090 n         1 MOL     -0.749956
     20 C7         -2.6700    5.6110   -0.3100 c3        1 MOL      0.631024
     21 C8         -3.4300    5.1900   -1.5800 c         1 MOL      0.313413
     22 O5         -3.5320    5.9540   -2.5740 o         1 MOL     -0.556936
     23 C9         -1.4620    6.4790   -0.6380 c3        1 MOL     -0.289110
     24 H8         -1.7520    3.6650    0.3000 hn        1 MOL      0.410550
     25 H9         -3.2940    6.3480    0.2070 h1        1 MOL     -0.048856
     26 H10        -0.7480    5.9660   -1.2800 hc        1 MOL      0.052995
     27 H11        -1.8630    7.4010   -1.0750 hc        1 MOL      0.052995
     28 H12        -1.0200    6.7850    0.3080 hc        1 MOL      0.052995
     29 N3         -3.9980    3.9800   -1.6090 n         1 MOL     -0.354768
     30 C10        -4.6670    3.4650   -2.8570 c3        1 MOL      0.257236
     31 C11        -5.8800    2.6140   -2.5870 c         1 MOL      0.301603
     32 O6         -6.8200    2.5510   -3.4010 o         1 MOL     -0.553209
     33 C12        -3.7080    2.7030   -3.7840 c3        1 MOL     -0.247368
     34 C13        -3.0220    1.6170   -2.8580 c         1 MOL      0.644494
     35 O7         -3.6750    0.7630   -2.1810 o         1 MOL     -0.673748
     36 O8         -1.7950    1.6960   -2.6440 o         1 MOL     -0.673748
     37 H13        -3.9940    3.4050   -0.7750 hn        1 MOL      0.172550
     38 H14        -5.1130    4.2980   -3.4010 h1        1 MOL      0.038705
     39 H15        -2.9560    3.3870   -4.1650 hc        1 MOL      0.068009
     40 H16        -4.2410    2.2750   -4.6420 hc        1 MOL      0.068009
     41 N4         -6.0730    2.0260   -1.3830 n         1 MOL     -0.051331
     42 C14        -7.2620    1.3040   -0.9640 c3        1 MOL     -0.267570
     43 C15        -7.4340   -0.1500   -1.4770 c         1 MOL      0.478019
     44 O9         -8.5050   -0.7630   -1.4610 o         1 MOL     -0.604960
     45 H17        -5.3830    2.2410   -0.6770 hn        1 MOL      0.109769
     46 H18        -8.1650    1.8460   -1.2390 h1        1 MOL      0.121097
     47 H19        -7.2460    1.2860    0.1290 h1        1 MOL      0.121097
     48 N5         -6.3040   -0.7200   -1.8080 n         1 MOL     -0.089416
     49 C16        -6.2410   -2.1270   -2.2000 c3        1 MOL     -0.029742
     50 C17        -6.1770   -3.2900   -1.1080 c         1 MOL      0.458525
     51 O10        -6.1390   -4.4810   -1.4320 o         1 MOL     -0.521080
     52 C18        -5.0960   -2.3020   -3.2330 c3        1 MOL     -0.168787
     53 C19        -3.6770   -2.1910   -2.6050 c         1 MOL      0.647785
     54 N6         -2.6830   -2.2700   -3.4740 n         1 MOL     -0.542853
     55 O11        -3.3910   -2.0400   -1.3580 o         1 MOL     -0.724775
     56 H20        -5.4400   -0.2020   -1.8550 hn        1 MOL      0.141001
     57 H21        -7.1530   -2.4190   -2.7260 h1        1 MOL      0.092669
     58 H22        -5.1320   -1.5190   -3.9980 hc        1 MOL      0.051845
     59 H23        -5.1150   -3.3120   -3.6420 hc        1 MOL      0.051845
     60 H24        -3.0310   -2.4720   -4.4000 hn        1 MOL      0.294241
     61 H25        -1.7150   -2.1120   -3.2550 hn        1 MOL      0.294241
     62 N7         -6.2080   -2.8890    0.1180 n         1 MOL     -0.245015
     63 C20        -6.2180   -3.7510    1.3310 c3        1 MOL     -0.226113
     64 C21        -4.9270   -4.3850    1.6910 c         1 MOL      0.527743
     65 O12        -4.9580   -5.3670    2.4270 o         1 MOL     -0.578024
     66 H26        -6.2370   -1.9010    0.3270 hn        1 MOL      0.244263
     67 H27        -6.9510   -4.5360    1.1910 h1        1 MOL      0.114687
     68 H28        -6.5590   -3.1080    2.1450 h1        1 MOL      0.114687
     69 N8         -3.8740   -3.8200    1.1990 n         1 MOL     -0.148980
     70 C22        -2.4990   -4.3750    1.3820 c3        1 MOL     -0.127737
     71 C23        -1.3790   -3.3410    1.4740 c         1 MOL      0.297412
     72 O13        -1.5070   -2.1970    0.9750 o         1 MOL     -0.336319
     73 C24        -2.1900   -5.3330    0.1970 c3        1 MOL      0.523896
     74 C25        -2.9780   -6.6280    0.1510 c3        1 MOL     -0.631675
     75 O14        -2.5650   -4.7580   -1.0460 oh        1 MOL     -0.559474
     76 H29        -3.9610   -2.9800    0.6450 hn        1 MOL      0.120166
     77 H30        -2.4320   -4.9250    2.3220 h1        1 MOL      0.074645
     78 H31        -1.1650   -5.6850    0.2350 h1        1 MOL     -0.031806
     79 H32        -2.7100   -3.8180   -0.8970 ho        1 MOL      0.313880
     80 H33        -2.4320   -7.2390   -0.5590 hc        1 MOL      0.157471
     81 H34        -3.1160   -7.0890    1.1300 hc        1 MOL      0.157471
     82 H35        -3.9840   -6.5030   -0.2640 hc        1 MOL      0.157471
     83 N9         -0.1900   -3.7880    1.8900 n         1 MOL     -0.193281
     84 C26         1.0410   -2.9820    1.8470 c3        1 MOL     -0.086210
     85 C27         1.6870   -3.1900    0.5350 c         1 MOL      0.384954
     86 O15         1.9240   -4.3160    0.1570 o         1 MOL     -0.546349
     87 C28         1.9630   -3.1800    3.0960 c3        1 MOL      0.178384
     88 C29         1.0790   -2.7300    4.2900 c3        1 MOL     -0.015424
     89 C30         3.2910   -2.5430    2.9370 c3        1 MOL     -0.026217
     90 C31         1.8150   -2.5800    5.6860 c3        1 MOL     -0.176237
     91 H36        -0.1380   -4.6990    2.3260 hn        1 MOL      0.223949
     92 H37         0.7740   -1.9230    1.8400 h1        1 MOL     -0.028490
     93 H38         2.1800   -4.2430    3.2540 hc        1 MOL     -0.033692
     94 H39         0.2270   -3.4060    4.3410 hc        1 MOL      0.006405
     95 H40         0.6830   -1.7430    4.0580 hc        1 MOL      0.006405
     96 H41         3.7810   -2.6810    1.9710 hc        1 MOL      0.006636
     97 H42         3.1510   -1.4830    3.1040 hc        1 MOL      0.006636
     98 H43         3.9890   -2.9330    3.6710 hc        1 MOL      0.006636
     99 H44         2.2110   -3.5220    6.0690 hc        1 MOL      0.036756
    100 H45         2.6850   -1.9280    5.5770 hc        1 MOL      0.036756
    101 H46         1.1500   -2.0800    6.4000 hc        1 MOL      0.036756
    102 N10         2.0200   -2.0600   -0.1480 n         1 MOL     -0.037887
    103 C32         2.7620   -1.9790   -1.3800 c3        1 MOL      0.087507
    104 C33         4.2210   -1.6270   -1.1020 c         1 MOL      0.285024
    105 O16         4.5840   -1.3550    0.0580 o         1 MOL     -0.292198
    106 C34         2.0560   -0.9200   -2.2150 c3        1 MOL     -0.231390
    107 C35         0.6410   -1.2420   -2.5060 c         1 MOL      0.727396
    108 O17        -0.1960   -0.8670   -1.6700 o         1 MOL     -0.674095
    109 O18         0.3000   -1.8580   -3.5480 o         1 MOL     -0.674095
    110 H47         1.8300   -1.1830    0.3180 hn        1 MOL      0.074152
    111 H48         2.6870   -2.9450   -1.8750 h1        1 MOL      0.069687
    112 H49         2.5590   -0.8180   -3.1770 hc        1 MOL      0.043269
    113 H50         2.1520    0.0680   -1.7500 hc        1 MOL      0.043269
    114 N11         5.2010   -1.6660   -2.1260 n         1 MOL     -0.480855
    115 C36         6.5320   -1.1920   -1.8990 c3        1 MOL      0.316774
    116 C37         6.7530    0.1940   -1.1690 c         1 MOL      0.408664
    117 O19         7.4390    0.2910   -0.1220 o         1 MOL     -0.515715
    118 C38         7.2950   -1.2990   -3.1950 c3        1 MOL     -0.182555
    119 C39         8.7700   -1.1960   -2.8860 ca        1 MOL      0.118054
    120 C40         9.4300   -2.1960   -2.0960 ca        1 MOL     -0.225553
    121 C41         9.4950   -0.0650   -3.3580 ca        1 MOL     -0.225553
    122 C42        10.7820   -1.9400   -1.7220 ca        1 MOL     -0.073234
    123 C43        10.8450    0.0940   -3.0510 ca        1 MOL     -0.073234
    124 C44        11.4650   -0.8150   -2.1880 ca        1 MOL     -0.125599
    125 H51         4.9220   -2.1340   -2.9720 hn        1 MOL      0.302529
    126 H52         7.0070   -1.9370   -1.2540 h1        1 MOL      0.012802
    127 H53         7.0170   -0.4760   -3.8420 hc        1 MOL      0.053263
    128 H54         7.0750   -2.2970   -3.5790 hc        1 MOL      0.053263
    129 H55         9.0470   -3.1770   -1.8440 ha        1 MOL      0.146954
    130 H56         9.0710    0.7650   -3.9070 ha        1 MOL      0.146954
    131 H57        11.2810   -2.6410   -1.0640 ha        1 MOL      0.101827
    132 H58        11.4020    0.8900   -3.5150 ha        1 MOL      0.101827
    133 H59        12.4900   -0.7760   -1.8640 ha        1 MOL      0.096675
    134 N12         6.1320    1.3410   -1.5740 n         1 MOL     -0.140276
    135 C45         6.2780    2.6340   -0.8660 c3        1 MOL      0.046549
    136 C46         5.6520    2.6240    0.5420 c         1 MOL      0.337484
    137 O20         5.9430    3.5330    1.3200 o         1 MOL     -0.513044
    138 C47         5.6630    3.6920   -1.8290 c3        1 MOL     -0.312868
    139 C48         4.6510    2.8580   -2.6060 c3        1 MOL      0.216508
    140 C49         5.3170    1.5580   -2.8080 c3        1 MOL     -0.099589
    141 H60         7.3390    2.8120   -0.6900 h1        1 MOL      0.082976
    142 H61         5.1400    4.4900   -1.2990 hc        1 MOL      0.103724
    143 H62         6.4440    4.0150   -2.5180 hc        1 MOL      0.103724
    144 H63         3.7500    2.8390   -2.0050 hc        1 MOL     -0.004298
    145 H64         4.3740    3.3150   -3.5560 hc        1 MOL     -0.004298
    146 H65         4.5750    0.7650   -2.8750 h1        1 MOL      0.031040
    147 H66         5.8870    1.6330   -3.7340 h1        1 MOL      0.031040
    148 N13         4.7300    1.7180    0.8570 n         1 MOL     -0.019183
    149 C50         4.1870    1.5500    2.1650 c3        1 MOL     -0.253112
    150 C51         4.9850    0.6430    3.1100 c         1 MOL      0.563342
    151 O21         4.9830    0.9110    4.2910 o         1 MOL     -0.552964
    152 C52         2.6940    1.1690    2.0210 c3        1 MOL     -0.064201
    153 C53         1.8350    1.9600    1.0270 c3        1 MOL     -0.019049
    154 C54         0.3980    1.5120    0.8950 c         1 MOL      0.582780
    155 O22         0.0570    0.3930    1.3850 o         1 MOL     -0.712082
    156 O23        -0.4610    2.1100    0.1280 o         1 MOL     -0.712082
    157 H67         4.6000    0.8560    0.3460 hn        1 MOL      0.095372
    158 H68         4.2190    2.5490    2.6010 h1        1 MOL      0.127805
    159 H69         2.2350    1.1830    3.0150 hc        1 MOL      0.090216
    160 H70         2.7370    0.1640    1.5920 hc        1 MOL      0.090216
    161 H71         2.1920    1.9600   -0.0080 hc        1 MOL      0.055070
    162 H72         1.8460    3.0030    1.3200 hc        1 MOL      0.055070
    163 N14         5.7350   -0.3360    2.5440 n         1 MOL     -0.115683
    164 C55         6.6350   -1.1020    3.3500 c3        1 MOL     -0.166979
    165 H73         6.1470   -1.3650    4.2880 h1        1 MOL      0.063828
    166 H74         6.9130   -2.0120    2.8190 h1        1 MOL      0.063828
    167 H75         7.5280   -0.5140    3.5580 h1        1 MOL      0.063828
    168 H76         5.5350   -0.6600    1.6050 hn        1 MOL      0.080275
    169 Ca1        -2.0290    0.0810   -0.1750 Ca        1 MOL      1.728931
    170 O24        -4.0950   -0.9560    1.3810 oh        1 MOL     -0.829574
    171 H77        -3.5690   -1.0330    2.1820 ho        1 MOL      0.408490
    172 H78        -4.9750   -0.7330    1.6980 ho        1 MOL      0.408490
    173 O25        -1.9950   -0.1720    3.1150 oh        1 MOL     -0.829574
    174 H79        -1.1850    0.1090    2.6820 ho        1 MOL      0.408490
    175 H80        -2.0080    0.3250    3.9320 ho        1 MOL      0.408490
@<TRIPOS>BOND
     1    1    2 1   
     2    1    4 1   
     3    1    5 1   
     4    1    6 1   
     5    2    3 2   
     6    2    7 1   
     7    7    8 1   
     8    7   15 1   
     9    8    9 1   
    10    8   11 1   
    11    8   16 1   
    12    9   10 2   
    13    9   19 1   
    14   11   12 1   
    15   11   17 1   
    16   11   18 1   
    17   12   13 1   
    18   12   14 1   
    19   19   20 1   
    20   19   24 1   
    21   20   21 1   
    22   20   23 1   
    23   20   25 1   
    24   21   22 2   
    25   21   29 1   
    26   23   26 1   
    27   23   27 1   
    28   23   28 1   
    29   29   30 1   
    30   29   37 1   
    31   30   31 1   
    32   30   33 1   
    33   30   38 1   
    34   31   32 2   
    35   31   41 1   
    36   33   34 1   
    37   33   39 1   
    38   33   40 1   
    39   34   35 1   
    40   34   36 1   
    41   41   42 1   
    42   41   45 1   
    43   42   43 1   
    44   42   46 1   
    45   42   47 1   
    46   43   44 2   
    47   43   48 1   
    48   48   49 1   
    49   48   56 1   
    50   49   50 1   
    51   49   52 1   
    52   49   57 1   
    53   50   51 2   
    54   50   62 1   
    55   52   53 1   
    56   52   58 1   
    57   52   59 1   
    58   53   54 1   
    59   53   55 2   
    60   54   60 1   
    61   54   61 1   
    62   62   63 1   
    63   62   66 1   
    64   63   64 1   
    65   63   67 1   
    66   63   68 1   
    67   64   65 2   
    68   64   69 1   
    69   69   70 1   
    70   69   76 1   
    71   70   71 1   
    72   70   73 1   
    73   70   77 1   
    74   71   72 2   
    75   71   83 1   
    76   73   74 1   
    77   73   75 1   
    78   73   78 1   
    79   74   80 1   
    80   74   81 1   
    81   74   82 1   
    82   75   79 1   
    83   83   84 1   
    84   83   91 1   
    85   84   85 1   
    86   84   87 1   
    87   84   92 1   
    88   85   86 2   
    89   85  102 1   
    90   87   88 1   
    91   87   89 1   
    92   87   93 1   
    93   88   90 1   
    94   88   94 1   
    95   88   95 1   
    96   89   96 1   
    97   89   97 1   
    98   89   98 1   
    99   90   99 1   
   100   90  100 1   
   101   90  101 1   
   102  102  103 1   
   103  102  110 1   
   104  103  104 1   
   105  103  106 1   
   106  103  111 1   
   107  104  105 2   
   108  104  114 1   
   109  106  107 1   
   110  106  112 1   
   111  106  113 1   
   112  107  108 1   
   113  107  109 1   
   114  114  115 1   
   115  114  125 1   
   116  115  116 1   
   117  115  118 1   
   118  115  126 1   
   119  116  117 2   
   120  116  134 1   
   121  118  119 1   
   122  118  127 1   
   123  118  128 1   
   124  119  120 ar  
   125  119  121 ar  
   126  120  122 ar  
   127  120  129 1   
   128  121  123 ar  
   129  121  130 1   
   130  122  124 ar  
   131  122  131 1   
   132  123  124 ar  
   133  123  132 1   
   134  124  133 1   
   135  134  135 1   
   136  134  140 1   
   137  135  136 1   
   138  135  138 1   
   139  135  141 1   
   140  136  137 2   
   141  136  148 1   
   142  138  139 1   
   143  138  142 1   
   144  138  143 1   
   145  139  140 1   
   146  139  144 1   
   147  139  145 1   
   148  140  146 1   
   149  140  147 1   
   150  148  149 1   
   151  148  157 1   
   152  149  150 1   
   153  149  152 1   
   154  149  158 1   
   155  150  151 2   
   156  150  163 1   
   157  152  153 1   
   158  152  159 1   
   159  152  160 1   
   160  153  154 1   
   161  153  161 1   
   162  153  162 1   
   163  154  155 1   
   164  154  156 1   
   165  163  164 1   
   166  163  168 1   
   167  164  165 1   
   168  164  166 1   
   169  164  167 1   
   170  170  171 1   
   171  170  172 1   
   172  173  174 1   
   173  173  175 1   
@<TRIPOS>SUBSTRUCTURE
     1 MOL         1 TEMP              0 ****  ****    0 ROOT
