@<TRIPOS>MOLECULE
MOL
  183   181     1     0     0
SMALL
resp


@<TRIPOS>ATOM
      1 C1          0.8750   -2.6030    6.3750 c3        1 MOL     -0.237361
      2 C2          1.1240   -2.4230    4.8260 c         1 MOL      0.703535
      3 O1          0.3920   -2.9670    3.9790 o         1 MOL     -0.550921
      4 H1         -0.0110   -3.2180    6.5300 hc        1 MOL      0.053352
      5 H2          1.7380   -3.0900    6.8280 hc        1 MOL      0.053352
      6 H3          0.7250   -1.6270    6.8350 hc        1 MOL      0.053352
      7 N1          2.1340   -1.6450    4.4370 n         1 MOL     -0.693585
      8 C3          2.5770   -1.6110    3.0140 c3        1 MOL      0.297588
      9 C4          3.1360   -3.0290    2.6440 c         1 MOL      0.412757
     10 O2          4.0500   -3.6170    3.3000 o         1 MOL     -0.582386
     11 C5          3.6290   -0.4200    2.7730 c3        1 MOL     -0.427449
     12 C6          4.2270   -0.4120    1.4320 c         1 MOL      0.970021
     13 O3          5.3030    0.2000    1.2700 o         1 MOL     -0.780882
     14 O4          3.6200   -1.0050    0.5140 o         1 MOL     -0.780882
     15 H4          2.7600   -1.2560    5.1280 hn        1 MOL      0.337072
     16 H5          1.6760   -1.5230    2.4160 h1        1 MOL      0.021001
     17 H6          4.4410   -0.5270    3.4950 hc        1 MOL      0.096538
     18 H7          3.1050    0.4970    3.0320 hc        1 MOL      0.096538
     19 N2          2.6950   -3.5130    1.4960 n         1 MOL     -0.039974
     20 C7          2.9240   -4.8980    0.9710 c3        1 MOL     -0.233824
     21 C8          3.8540   -4.9540   -0.2440 c         1 MOL      0.633396
     22 O5          4.6770   -5.8150   -0.3530 o         1 MOL     -0.598358
     23 C9          1.6480   -5.7690    0.7610 c3        1 MOL      0.422436
     24 C10         1.1280   -6.2860    2.1040 c3        1 MOL      0.071796
     25 C11         1.8540   -6.9110   -0.1800 c3        1 MOL     -0.356928
     26 C12        -0.3370   -6.6850    2.2050 c3        1 MOL     -0.265571
     27 H8          2.0430   -2.9500    0.9590 hn        1 MOL      0.056340
     28 H9          3.5740   -5.4390    1.6580 h1        1 MOL      0.058967
     29 H10         0.9030   -5.0750    0.3860 hc        1 MOL     -0.062039
     30 H11         1.1530   -5.4840    2.8370 hc        1 MOL     -0.030105
     31 H12         1.6890   -7.1730    2.4290 hc        1 MOL     -0.030105
     32 H13         2.7750   -7.3530    0.2040 hc        1 MOL      0.063058
     33 H14         0.9750   -7.5540   -0.2350 hc        1 MOL      0.063058
     34 H15         2.0000   -6.5050   -1.1780 hc        1 MOL      0.063058
     35 H16        -0.6260   -7.5870    1.6650 hc        1 MOL      0.058114
     36 H17        -0.6530   -6.6730    3.2450 hc        1 MOL      0.058114
     37 H18        -1.0020   -5.9200    1.8050 hc        1 MOL      0.058114
     38 N3          3.7820   -4.0700   -1.2350 n         1 MOL     -0.299404
     39 C13         4.6890   -4.0460   -2.4130 c3        1 MOL     -0.046197
     40 C14         6.0060   -3.3140   -2.1880 c         1 MOL      0.456724
     41 O6          6.8050   -3.2970   -3.1230 o         1 MOL     -0.550718
     42 C15         3.9640   -3.5140   -3.5860 c3        1 MOL     -0.077379
     43 C16         3.2570   -2.1300   -3.3860 c         1 MOL      0.659190
     44 O7          3.8990   -1.1060   -3.0540 o         1 MOL     -0.711145
     45 O8          2.0210   -2.0370   -3.3670 o         1 MOL     -0.711145
     46 H19         3.1130   -3.3280   -1.1440 hn        1 MOL      0.164688
     47 H20         4.9050   -5.0770   -2.6830 h1        1 MOL      0.102146
     48 H21         3.1830   -4.2090   -3.8830 hc        1 MOL      0.027616
     49 H22         4.6370   -3.4880   -4.4400 hc        1 MOL      0.027616
     50 N4          6.1640   -2.6440   -1.0430 n         1 MOL     -0.279254
     51 C17         7.3930   -1.9400   -0.5730 c3        1 MOL     -0.132047
     52 C18         7.7150   -0.5540   -1.1610 c         1 MOL      0.534659
     53 O9          8.8140   -0.0750   -0.9180 o         1 MOL     -0.609376
     54 H23         5.3290   -2.5670   -0.4730 hn        1 MOL      0.212683
     55 H24         8.3460   -2.4670   -0.6170 h1        1 MOL      0.095155
     56 H25         7.2240   -1.8850    0.4970 h1        1 MOL      0.095155
     57 N5          6.7510    0.1230   -1.8320 n         1 MOL     -0.285540
     58 C19         6.8760    1.5270   -2.3250 c3        1 MOL      0.037553
     59 C20         6.8890    2.6720   -1.3580 c         1 MOL      0.446317
     60 O10         7.0460    3.8600   -1.6940 o         1 MOL     -0.579924
     61 C21         5.8590    1.7060   -3.4140 c3        1 MOL     -0.215987
     62 C22         4.4170    1.8140   -2.9080 c         1 MOL      0.777790
     63 O11         3.5260    2.2190   -3.7100 o         1 MOL     -0.761762
     64 O12         4.0910    1.6580   -1.6960 o         1 MOL     -0.761762
     65 H26         5.8490   -0.3310   -1.8810 hn        1 MOL      0.215087
     66 H27         7.8060    1.6510   -2.8810 h1        1 MOL      0.064569
     67 H28         5.9550    0.7880   -4.0050 hc        1 MOL      0.057842
     68 H29         6.1130    2.6320   -3.9300 hc        1 MOL      0.057842
     69 N6          6.6520    2.3090   -0.0860 n         1 MOL     -0.189189
     70 C23         6.8580    3.2390    1.0380 c3        1 MOL     -0.294686
     71 C24         5.5680    4.0360    1.3750 c         1 MOL      0.461705
     72 O13         5.6540    4.8710    2.2410 o         1 MOL     -0.559410
     73 H30         6.5780    1.3310    0.1730 hn        1 MOL      0.301599
     74 H31         7.7410    3.8170    0.7730 h1        1 MOL      0.121421
     75 H32         7.0510    2.6860    1.9530 h1        1 MOL      0.121421
     76 N7          4.4770    3.6710    0.7390 n         1 MOL     -0.061528
     77 C25         3.1300    4.1560    0.9560 c3        1 MOL     -0.070133
     78 C26         2.1340    3.0540    1.0900 c         1 MOL      0.427186
     79 O14         2.1750    1.9750    0.4670 o         1 MOL     -0.666618
     80 C27         2.7650    5.0420   -0.2770 c3        1 MOL      0.264070
     81 C28         3.8510    6.0390   -0.8140 c3        1 MOL     -0.348992
     82 C29         4.1080    7.2970    0.0890 c         1 MOL      0.553534
     83 N8          5.3430    7.7570    0.2520 n         1 MOL     -0.718318
     84 O15         3.2330    7.8850    0.6990 o         1 MOL     -0.544727
     85 H33         4.5140    2.8820    0.1020 hn        1 MOL      0.189459
     86 H34         3.1150    4.7500    1.8790 h1        1 MOL      0.058795
     87 H35         1.9090    5.6940   -0.0870 hc        1 MOL     -0.034398
     88 H36         2.4870    4.5050   -1.1810 hc        1 MOL     -0.034398
     89 H37         3.6500    6.3410   -1.8360 hc        1 MOL      0.122831
     90 H38         4.7600    5.4400   -0.9100 hc        1 MOL      0.122831
     91 H39         6.0560    7.5170   -0.4050 hn        1 MOL      0.335737
     92 H40         5.5230    8.4700    0.9460 hn        1 MOL      0.335737
     93 N9          1.0710    3.3920    1.8610 n         1 MOL     -0.285650
     94 C30        -0.1500    2.5670    2.0050 c3        1 MOL      0.013475
     95 C31        -1.2220    2.9980    1.0690 c         1 MOL      0.309245
     96 O16        -1.7790    4.1320    1.1820 o         1 MOL     -0.561961
     97 C32        -0.6670    2.5220    3.4720 c3        1 MOL      0.147688
     98 C33        -2.0210    1.8980    3.7540 c3        1 MOL     -0.317354
     99 C34         0.3170    1.5970    4.2080 c3        1 MOL     -0.317354
    100 H41         1.0310    4.2590    2.3770 hn        1 MOL      0.250470
    101 H42         0.0720    1.5640    1.6340 h1        1 MOL      0.134714
    102 H43        -0.5040    3.4920    3.9410 hc        1 MOL      0.026469
    103 H44        -2.1870    0.9090    3.3350 hc        1 MOL      0.070862
    104 H45        -2.2180    1.8110    4.8240 hc        1 MOL      0.070862
    105 H46        -2.8710    2.4190    3.3340 hc        1 MOL      0.070862
    106 H47         0.1280    1.8300    5.2540 hc        1 MOL      0.070862
    107 H48         0.0970    0.5500    3.9970 hc        1 MOL      0.070862
    108 H49         1.3610    1.8380    4.0000 hc        1 MOL      0.070862
    109 N10        -1.5960    2.0980    0.1820 n         1 MOL     -0.074556
    110 C35        -2.7100    2.3890   -0.7050 c3        1 MOL     -0.039629
    111 C36        -4.0460    2.1330    0.0750 c         1 MOL      0.267860
    112 O17        -4.1400    1.3560    0.9910 o         1 MOL     -0.217338
    113 C37        -2.6450    1.4110   -1.9590 c3        1 MOL     -0.231246
    114 C38        -3.7860    1.7610   -2.8890 c         1 MOL      0.658890
    115 N11        -3.7920    2.9640   -3.3380 n         1 MOL     -0.748490
    116 O18        -4.7040    0.9550   -3.0650 o         1 MOL     -0.559008
    117 H50        -1.1050    1.2240    0.0900 hn        1 MOL      0.169034
    118 H51        -2.7220    3.4240   -1.0310 h1        1 MOL      0.075638
    119 H52        -2.6240    0.3760   -1.6120 hc        1 MOL      0.102773
    120 H53        -1.6980    1.5660   -2.4650 hc        1 MOL      0.102773
    121 H54        -3.1590    3.7070   -3.0830 hn        1 MOL      0.352210
    122 H55        -4.4210    3.1730   -4.1090 hn        1 MOL      0.352210
    123 N12        -5.1000    2.6110   -0.4200 n         1 MOL     -0.303212
    124 C39        -6.5030    2.1670   -0.0640 c3        1 MOL      0.116856
    125 C40        -6.6530    0.5750   -0.0110 c         1 MOL      0.545007
    126 O19        -7.2350    0.0810    0.9260 o         1 MOL     -0.587751
    127 C41        -7.4950    2.8480   -1.0480 c3        1 MOL     -0.104050
    128 C42        -8.9810    2.5710   -0.8200 ca        1 MOL     -0.051308
    129 C43        -9.8080    3.4910   -0.1110 ca        1 MOL     -0.075630
    130 C44        -9.5520    1.4130   -1.4270 ca        1 MOL     -0.075630
    131 C45       -11.1530    3.1950    0.1060 ca        1 MOL     -0.347412
    132 C46       -10.8490    1.0200   -1.1540 ca        1 MOL     -0.347412
    133 C47       -11.6510    1.8810   -0.3620 ca        1 MOL      0.438966
    134 O20       -12.9580    1.5370   -0.1010 oh        1 MOL     -0.589555
    135 H56        -4.9300    3.3230   -1.1200 hn        1 MOL      0.207418
    136 H57        -6.6920    2.4700    0.9610 h1        1 MOL      0.041735
    137 H58        -7.2950    2.6540   -2.1030 hc        1 MOL      0.044332
    138 H59        -7.3620    3.9230   -0.8830 hc        1 MOL      0.044332
    139 H60        -9.3650    4.3440    0.3800 ha        1 MOL      0.121841
    140 H61        -8.9190    0.7530   -2.0030 ha        1 MOL      0.121841
    141 H62       -11.8080    3.7760    0.7320 ha        1 MOL      0.171130
    142 H63       -11.1920    0.0500   -1.4860 ha        1 MOL      0.171130
    143 H64       -13.2100    0.6780   -0.4570 ho        1 MOL      0.412711
    144 N13        -6.1140   -0.1920   -0.9340 n         1 MOL      0.031025
    145 C48        -6.2310   -1.6440   -0.9520 c3        1 MOL     -0.224091
    146 C49        -5.4610   -2.3160    0.1870 c         1 MOL      0.448138
    147 O21        -5.7750   -3.3620    0.7200 o         1 MOL     -0.536135
    148 C50        -5.8680   -2.1810   -2.4020 c3        1 MOL      0.078513
    149 C51        -6.2800   -3.6610   -2.6410 c3        1 MOL     -0.386185
    150 C52        -6.6830   -3.7600   -4.1220 c         1 MOL      0.756912
    151 O22        -7.7880   -3.4120   -4.5780 o         1 MOL     -0.755008
    152 O23        -5.8260   -4.1800   -4.9370 o         1 MOL     -0.755008
    153 H65        -5.8650    0.2080   -1.8240 hn        1 MOL      0.088287
    154 H66        -7.2930   -1.8660   -0.7850 h1        1 MOL      0.108019
    155 H67        -4.8220   -1.9700   -2.6300 hc        1 MOL      0.053057
    156 H68        -6.5140   -1.5700   -3.0190 hc        1 MOL      0.053057
    157 H69        -7.0810   -4.0430   -2.0110 hc        1 MOL      0.075650
    158 H70        -5.4280   -4.2850   -2.3700 hc        1 MOL      0.075650
    159 N14        -4.3740   -1.7030    0.6980 n         1 MOL      0.020899
    160 C53        -3.4690   -2.0630    1.8510 c3        1 MOL     -0.168732
    161 C54        -4.0070   -1.5090    3.2180 c         1 MOL      0.442882
    162 O24        -3.8730   -2.1410    4.2600 o         1 MOL     -0.575867
    163 C55        -2.1270   -1.3900    1.4570 c3        1 MOL      0.125888
    164 C56        -1.4060   -2.1470    0.3670 c3        1 MOL     -0.143226
    165 C57        -0.2240   -1.4390   -0.1690 c         1 MOL      0.834343
    166 O25         0.8830   -2.0550   -0.2400 o         1 MOL     -0.745622
    167 O26        -0.2190   -0.2610   -0.3460 o         1 MOL     -0.745622
    168 H71        -4.3310   -0.7260    0.4560 hn        1 MOL     -0.162868
    169 H72        -3.4510   -3.1510    1.9690 h1        1 MOL      0.124812
    170 H73        -1.4790   -1.3870    2.3370 hc        1 MOL      0.028353
    171 H74        -2.3880   -0.3470    1.2430 hc        1 MOL      0.028353
    172 H75        -2.0530   -2.3690   -0.4780 hc        1 MOL      0.027103
    173 H76        -1.0250   -3.1070    0.7100 hc        1 MOL      0.027103
    174 N15        -4.6580   -0.3770    3.2450 n         1 MOL      0.131603
    175 C58        -5.5430   -0.0330    4.3290 c3        1 MOL     -0.346954
    176 H77        -6.4840   -0.5720    4.2150 h1        1 MOL      0.104829
    177 H78        -5.0810   -0.3070    5.2780 h1        1 MOL      0.104829
    178 H79        -5.7360    1.0400    4.3150 h1        1 MOL      0.104829
    179 H80        -4.6050    0.1610    2.3990 hn        1 MOL     -0.031081
    180 Ca1         2.2500   -0.0530   -1.4040 Ca        1 MOL      1.790042
    181 O27         0.6490    0.3530   -3.4710 oh        1 MOL     -0.878000
    182 H81         0.9790    1.0590   -4.0180 ho        1 MOL      0.431369
    183 H82         0.2810   -0.2820   -4.0800 ho        1 MOL      0.431369
@<TRIPOS>BOND
     1    1    2 1   
     2    1    4 1   
     3    1    5 1   
     4    1    6 1   
     5    2    3 2   
     6    2    7 1   
     7    7    8 1   
     8    7   15 1   
     9    8    9 1   
    10    8   11 1   
    11    8   16 1   
    12    9   10 2   
    13    9   19 1   
    14   11   12 1   
    15   11   17 1   
    16   11   18 1   
    17   12   13 1   
    18   12   14 1   
    19   19   20 1   
    20   19   27 1   
    21   20   21 1   
    22   20   23 1   
    23   20   28 1   
    24   21   22 2   
    25   21   38 1   
    26   23   24 1   
    27   23   25 1   
    28   23   29 1   
    29   24   26 1   
    30   24   30 1   
    31   24   31 1   
    32   25   32 1   
    33   25   33 1   
    34   25   34 1   
    35   26   35 1   
    36   26   36 1   
    37   26   37 1   
    38   38   39 1   
    39   38   46 1   
    40   39   40 1   
    41   39   42 1   
    42   39   47 1   
    43   40   41 2   
    44   40   50 1   
    45   42   43 1   
    46   42   48 1   
    47   42   49 1   
    48   43   44 1   
    49   43   45 1   
    50   50   51 1   
    51   50   54 1   
    52   51   52 1   
    53   51   55 1   
    54   51   56 1   
    55   52   53 2   
    56   52   57 1   
    57   57   58 1   
    58   57   65 1   
    59   58   59 1   
    60   58   61 1   
    61   58   66 1   
    62   59   60 2   
    63   59   69 1   
    64   61   62 1   
    65   61   67 1   
    66   61   68 1   
    67   62   63 1   
    68   62   64 1   
    69   69   70 1   
    70   69   73 1   
    71   70   71 1   
    72   70   74 1   
    73   70   75 1   
    74   71   72 2   
    75   71   76 1   
    76   76   77 1   
    77   76   85 1   
    78   77   78 1   
    79   77   80 1   
    80   77   86 1   
    81   78   79 2   
    82   78   93 1   
    83   80   81 1   
    84   80   87 1   
    85   80   88 1   
    86   81   82 1   
    87   81   89 1   
    88   81   90 1   
    89   82   83 1   
    90   82   84 2   
    91   83   91 1   
    92   83   92 1   
    93   93   94 1   
    94   93  100 1   
    95   94   95 1   
    96   94   97 1   
    97   94  101 1   
    98   95   96 2   
    99   95  109 1   
   100   97   98 1   
   101   97   99 1   
   102   97  102 1   
   103   98  103 1   
   104   98  104 1   
   105   98  105 1   
   106   99  106 1   
   107   99  107 1   
   108   99  108 1   
   109  109  110 1   
   110  109  117 1   
   111  110  111 1   
   112  110  113 1   
   113  110  118 1   
   114  111  112 2   
   115  111  123 1   
   116  113  114 1   
   117  113  119 1   
   118  113  120 1   
   119  114  115 1   
   120  114  116 2   
   121  115  121 1   
   122  115  122 1   
   123  123  124 1   
   124  123  135 1   
   125  124  125 1   
   126  124  127 1   
   127  124  136 1   
   128  125  126 2   
   129  125  144 1   
   130  127  128 1   
   131  127  137 1   
   132  127  138 1   
   133  128  129 ar  
   134  128  130 ar  
   135  129  131 ar  
   136  129  139 1   
   137  130  132 ar  
   138  130  140 1   
   139  131  133 ar  
   140  131  141 1   
   141  132  133 ar  
   142  132  142 1   
   143  133  134 1   
   144  134  143 1   
   145  144  145 1   
   146  144  153 1   
   147  145  146 1   
   148  145  148 1   
   149  145  154 1   
   150  146  147 2   
   151  146  159 1   
   152  148  149 1   
   153  148  155 1   
   154  148  156 1   
   155  149  150 1   
   156  149  157 1   
   157  149  158 1   
   158  150  151 1   
   159  150  152 1   
   160  159  160 1   
   161  159  168 1   
   162  160  161 1   
   163  160  163 1   
   164  160  169 1   
   165  161  162 2   
   166  161  174 1   
   167  163  164 1   
   168  163  170 1   
   169  163  171 1   
   170  164  165 1   
   171  164  172 1   
   172  164  173 1   
   173  165  166 1   
   174  165  167 1   
   175  174  175 1   
   176  174  179 1   
   177  175  176 1   
   178  175  177 1   
   179  175  178 1   
   180  181  182 1   
   181  181  183 1   
@<TRIPOS>SUBSTRUCTURE
     1 MOL         1 TEMP              0 ****  ****    0 ROOT
