@<TRIPOS>MOLECULE
MOL
  189   185     1     0     0
SMALL
resp


@<TRIPOS>ATOM
      1 C1          0.2540    0.7730    6.1410 c3        1 MOL     -0.250643
      2 C2         -0.3040    1.0910    4.7720 c         1 MOL      0.707692
      3 O1          0.3470    1.7580    3.9260 o         1 MOL     -0.642118
      4 H1         -0.5550    0.4450    6.7950 hc        1 MOL      0.065484
      5 H2          0.9970   -0.0190    6.0570 hc        1 MOL      0.065484
      6 H3          0.7190    1.6660    6.5600 hc        1 MOL      0.065484
      7 N1         -1.5480    0.6690    4.5200 n         1 MOL     -0.605616
      8 C3         -2.1100    0.8920    3.2070 c3        1 MOL      0.237681
      9 C4         -2.4440    2.3900    3.0080 c         1 MOL      0.497321
     10 O2         -3.3380    2.8870    3.6930 o         1 MOL     -0.548973
     11 C5         -3.4250    0.0020    3.1020 c3        1 MOL     -0.406076
     12 C6         -4.0810   -0.0290    1.7480 c         1 MOL      0.985241
     13 O3         -3.6410    0.4780    0.6640 o         1 MOL     -0.716327
     14 O4         -5.1030   -0.7330    1.6080 o         1 MOL     -0.716327
     15 H4         -2.0540    0.2440    5.2770 hn        1 MOL      0.354454
     16 H5         -1.4440    0.6020    2.4050 h1        1 MOL     -0.063077
     17 H6         -4.1970    0.3290    3.7970 hc        1 MOL      0.096752
     18 H7         -3.1190   -1.0230    3.3100 hc        1 MOL      0.096752
     19 N2         -1.7370    3.0700    2.0590 n         1 MOL     -0.193260
     20 C7         -1.7950    4.5550    1.9850 c3        1 MOL     -0.110358
     21 C8         -2.9280    5.0700    1.0210 c         1 MOL      0.543226
     22 O5         -3.1770    6.2570    0.9900 o         1 MOL     -0.569124
     23 C9         -0.3910    5.0750    1.5340 c3        1 MOL     -0.166191
     24 C10        -0.2240    4.9580    0.0030 c3        1 MOL     -0.090524
     25 C11         1.2150    4.9690   -0.4280 c3        1 MOL     -0.051005
     26 C12         1.2850    4.3580   -1.7620 c3        1 MOL     -0.207747
     27 N3          2.6860    4.3030   -2.1760 n4        1 MOL     -0.228128
     28 H8         -0.9700    2.5960    1.5980 hn        1 MOL      0.320533
     29 H9         -1.9770    4.8570    3.0210 h1        1 MOL      0.119442
     30 H10         0.3750    4.5490    2.0980 hc        1 MOL      0.086821
     31 H11        -0.3760    6.1430    1.7770 hc        1 MOL      0.086821
     32 H12        -0.6250    5.7980   -0.5650 hc        1 MOL      0.082630
     33 H13        -0.7330    4.0720   -0.3660 hc        1 MOL      0.082630
     34 H14         1.8080    4.3180    0.2310 hc        1 MOL      0.054490
     35 H15         1.5880    5.9910   -0.4500 hc        1 MOL      0.054490
     36 H16         0.7850    5.1130   -2.3810 hx        1 MOL      0.143924
     37 H17         0.8670    3.3530   -1.7170 hx        1 MOL      0.143924
     38 H18         2.8410    3.6400   -2.9180 hn        1 MOL      0.274525
     39 H19         2.9830    5.1930   -2.5370 hn        1 MOL      0.274525
     40 H20         3.2690    4.0690   -1.3830 hn        1 MOL      0.274525
     41 N4         -3.6500    4.1850    0.3370 n         1 MOL     -0.304935
     42 C13        -4.6640    4.5710   -0.6300 c3        1 MOL      0.133259
     43 C14        -5.9290    3.6720   -0.4340 c         1 MOL      0.441549
     44 O6         -6.9870    3.9380   -0.9880 o         1 MOL     -0.528767
     45 C15        -4.1720    4.5100   -2.0440 c3        1 MOL     -0.409372
     46 C16        -3.2520    3.2880   -2.3850 c         1 MOL      0.912706
     47 O7         -3.1630    2.2920   -1.6510 o         1 MOL     -0.760692
     48 O8         -2.6170    3.3360   -3.4620 o         1 MOL     -0.760692
     49 H21        -3.2560    3.2580    0.4150 hn        1 MOL     -0.001674
     50 H22        -5.0960    5.5500   -0.4190 h1        1 MOL      0.109219
     51 H23        -3.6130    5.4270   -2.1900 hc        1 MOL      0.107325
     52 H24        -5.0430    4.3980   -2.6960 hc        1 MOL      0.107325
     53 N5         -5.9520    2.6820    0.5130 n         1 MOL     -0.303283
     54 C17        -7.0350    1.8210    0.9440 c3        1 MOL      0.018866
     55 C18        -7.4650    0.7810   -0.0730 c         1 MOL      0.479039
     56 O9         -8.5680    0.2530    0.0380 o         1 MOL     -0.558327
     57 H25        -5.0510    2.3440    0.8340 hn        1 MOL      0.168728
     58 H26        -7.8680    2.3360    1.4180 h1        1 MOL      0.063412
     59 H27        -6.6080    1.2050    1.7310 h1        1 MOL      0.063412
     60 N6         -6.6180    0.4610   -1.0460 n         1 MOL     -0.259453
     61 C19        -6.9400   -0.5370   -2.0370 c3        1 MOL     -0.039244
     62 C20        -7.1260   -2.0200   -1.5410 c         1 MOL      0.408509
     63 O10        -7.7200   -2.8860   -2.2330 o         1 MOL     -0.529704
     64 C21        -5.9040   -0.4830   -3.1950 c3        1 MOL     -0.367441
     65 C22        -4.4990   -0.8220   -2.7150 c         1 MOL      0.856774
     66 O11        -3.5330   -0.2460   -3.3140 o         1 MOL     -0.759985
     67 O12        -4.2140   -1.5290   -1.6830 o         1 MOL     -0.759985
     68 H28        -5.6870    0.8540   -1.0720 hn        1 MOL      0.265514
     69 H29        -7.8900   -0.2700   -2.5040 h1        1 MOL      0.121431
     70 H30        -5.9970    0.4650   -3.7140 hc        1 MOL      0.124340
     71 H31        -6.1390   -1.2700   -3.9070 hc        1 MOL      0.124340
     72 N7         -6.7340   -2.2960   -0.2680 n         1 MOL     -0.125424
     73 C23        -6.9130   -3.6410    0.4170 c3        1 MOL     -0.240585
     74 C24        -5.6890   -4.5280    0.1900 c         1 MOL      0.631375
     75 O13        -5.7100   -5.7460    0.3180 o         1 MOL     -0.576018
     76 H32        -6.2510   -1.5740    0.2330 hn        1 MOL      0.259083
     77 H33        -7.7640   -4.1540   -0.0420 h1        1 MOL      0.115641
     78 H34        -7.0880   -3.5360    1.4840 h1        1 MOL      0.115641
     79 N8         -4.5440   -3.8380   -0.0380 n         1 MOL     -0.434468
     80 C25        -3.2290   -4.4730   -0.2980 c3        1 MOL     -0.058924
     81 C26        -2.0630   -3.5950    0.0710 c         1 MOL      0.803883
     82 O14        -2.2940   -2.3640    0.2570 o         1 MOL     -0.778500
     83 C27        -3.0790   -4.8490   -1.8230 c3        1 MOL      0.575981
     84 C28        -3.5050   -6.3120   -2.0190 c3        1 MOL     -0.574108
     85 O15        -3.6540   -3.9130   -2.7010 oh        1 MOL     -0.627073
     86 H35        -4.5950   -2.8530   -0.2750 hn        1 MOL      0.287757
     87 H36        -3.1040   -5.3350    0.3480 h1        1 MOL      0.069590
     88 H37        -2.0140   -4.8390   -2.0390 h1        1 MOL     -0.088106
     89 H38        -3.8850   -3.1790   -2.1140 ho        1 MOL      0.378212
     90 H39        -2.9170   -6.8960   -1.3070 hc        1 MOL      0.136343
     91 H40        -4.5770   -6.4230   -1.8870 hc        1 MOL      0.136343
     92 H41        -3.3210   -6.5920   -3.0560 hc        1 MOL      0.136343
     93 N9         -0.9270   -4.1850    0.3290 n         1 MOL     -0.740719
     94 C29         0.3470   -3.4220    0.6700 c3        1 MOL      0.339458
     95 C30         1.5120   -3.6540   -0.3250 c         1 MOL      0.315720
     96 O16         1.5550   -4.6700   -0.9660 o         1 MOL     -0.507099
     97 C31         0.6380   -3.4960    2.1840 c3        1 MOL      0.066668
     98 C32        -0.5110   -3.0120    3.0750 c3        1 MOL      0.204102
     99 C33         1.9800   -2.8920    2.5910 c3        1 MOL     -0.345761
    100 C34        -0.4300   -3.5100    4.5410 c3        1 MOL     -0.385522
    101 H42        -0.8710   -5.1940    0.2820 hn        1 MOL      0.331605
    102 H43         0.1200   -2.3610    0.5570 h1        1 MOL     -0.032836
    103 H44         0.6820   -4.5490    2.4690 hc        1 MOL     -0.004307
    104 H45        -1.4640   -3.4230    2.7220 hc        1 MOL      0.012546
    105 H46        -0.5180   -1.9190    3.1100 hc        1 MOL      0.012546
    106 H47         2.8470   -3.3360    2.0930 hc        1 MOL      0.052848
    107 H48         1.9620   -1.8130    2.4100 hc        1 MOL      0.052848
    108 H49         2.1820   -2.9990    3.6530 hc        1 MOL      0.052848
    109 H50         0.5460   -3.3170    4.9720 hc        1 MOL      0.089958
    110 H51        -1.2090   -2.9870    5.0950 hc        1 MOL      0.089958
    111 H52        -0.4780   -4.5880    4.6740 hc        1 MOL      0.089958
    112 N10         2.5110   -2.7540   -0.3420 n         1 MOL     -0.084445
    113 C35         3.7770   -2.8340   -1.1150 c3        1 MOL     -0.087258
    114 C36         5.0510   -2.7910   -0.2480 c         1 MOL      0.218200
    115 O17         4.9760   -2.4990    0.9610 o         1 MOL     -0.302514
    116 C37         3.7410   -1.7750   -2.1580 c3        1 MOL      0.501219
    117 C38         2.9580   -1.9690   -3.3650 c3        1 MOL     -0.367056
    118 O18         3.5700   -0.5070   -1.6440 oh        1 MOL     -0.644315
    119 H53         2.4580   -2.0730    0.3970 hn        1 MOL      0.303952
    120 H54         3.7710   -3.7840   -1.6630 h1        1 MOL      0.084843
    121 H55         4.6930   -1.6580   -2.6690 h1        1 MOL     -0.037683
    122 H56         2.7240   -0.4490   -1.2050 ho        1 MOL      0.313941
    123 H57         2.0180   -2.4720   -3.1040 hc        1 MOL      0.082777
    124 H58         2.8740   -1.1030   -4.0140 hc        1 MOL      0.082777
    125 H59         3.4160   -2.8140   -3.8840 hc        1 MOL      0.082777
    126 N11         6.2360   -3.1780   -0.7750 n         1 MOL     -0.099799
    127 C39         7.5660   -2.8760   -0.1820 c3        1 MOL     -0.395895
    128 C40         7.7240   -1.3440    0.2460 c         1 MOL      0.573145
    129 O19         8.0040   -1.1250    1.4030 o         1 MOL     -0.472851
    130 C41         8.6770   -3.3220   -1.1030 c3        1 MOL      0.337045
    131 C42         8.5970   -4.8460   -1.3330 c3        1 MOL     -0.382370
    132 O20         8.6200   -2.7180   -2.3720 oh        1 MOL     -0.668959
    133 H60         6.3080   -3.7070   -1.6350 hn        1 MOL      0.212957
    134 H61         7.7310   -3.4920    0.7040 h1        1 MOL      0.176637
    135 H62         9.6870   -3.1720   -0.7020 h1        1 MOL      0.064634
    136 H63         9.1800   -3.2670   -2.9330 ho        1 MOL      0.429673
    137 H64         8.4490   -5.4570   -0.4380 hc        1 MOL      0.106836
    138 H65         7.7080   -5.0830   -1.9230 hc        1 MOL      0.106836
    139 H66         9.5160   -5.1490   -1.8510 hc        1 MOL      0.106836
    140 N12         7.4000   -0.3830   -0.5940 n         1 MOL     -0.382439
    141 C43         7.2890    1.0260   -0.2300 c3        1 MOL      0.007090
    142 C44         6.4330    1.3670    0.9670 c         1 MOL      0.302312
    143 O21         7.0260    1.8560    1.9650 o         1 MOL     -0.469652
    144 C45         6.8540    1.7590   -1.4930 c3        1 MOL     -0.089390
    145 C46         7.4920    3.1750   -1.4630 c3        1 MOL     -0.001875
    146 C47         6.9130    4.0200   -2.6190 c3        1 MOL     -0.037430
    147 C48         7.8410    4.0730   -3.8650 c3        1 MOL     -0.042252
    148 N13         7.3190    5.0530   -4.8660 n4        1 MOL     -0.094846
    149 H67         6.9950   -0.6270   -1.4880 hn        1 MOL      0.268493
    150 H68         8.2580    1.3920    0.0910 h1        1 MOL      0.098650
    151 H69         5.7690    1.9090   -1.4790 hc        1 MOL      0.038173
    152 H70         7.1780    1.2140   -2.3760 hc        1 MOL      0.038173
    153 H71         8.5760    3.1490   -1.5840 hc        1 MOL      0.061006
    154 H72         7.2450    3.6250   -0.5030 hc        1 MOL      0.061006
    155 H73         6.7360    5.0350   -2.2580 hc        1 MOL     -0.009952
    156 H74         5.9030    3.7970   -2.9650 hc        1 MOL     -0.009952
    157 H75         7.7830    3.0670   -4.2840 hx        1 MOL      0.107194
    158 H76         8.8720    4.3210   -3.6430 hx        1 MOL      0.107194
    159 H77         6.4950    4.8120   -5.3940 hn        1 MOL      0.207992
    160 H78         7.0660    5.9000   -4.3920 hn        1 MOL      0.207992
    161 H79         7.9650    5.2800   -5.6200 hn        1 MOL      0.207992
    162 N14         5.1240    1.1180    0.8710 n         1 MOL     -0.055679
    163 C49         4.0760    1.3070    1.9290 c3        1 MOL     -0.183229
    164 C50         4.5430    0.7740    3.2810 c         1 MOL      0.429880
    165 O22         4.2310    1.3040    4.3580 o         1 MOL     -0.504533
    166 C51         2.7790    0.6800    1.4020 c3        1 MOL      0.110635
    167 C52         2.0100    1.5300    0.4820 c3        1 MOL     -0.212594
    168 C53         0.7250    0.7740    0.0180 c         1 MOL      0.730302
    169 O23        -0.4020    1.1810    0.4160 o         1 MOL     -0.701385
    170 O24         0.8410   -0.2480   -0.6930 o         1 MOL     -0.701385
    171 H80         4.8230    0.8320   -0.0550 hn        1 MOL      0.068316
    172 H81         3.7810    2.3430    2.1040 h1        1 MOL      0.108316
    173 H82         2.1280    0.4930    2.2670 hc        1 MOL      0.051183
    174 H83         2.9000   -0.3380    1.0280 hc        1 MOL      0.051183
    175 H84         2.6920    1.8210   -0.3180 hc        1 MOL      0.023576
    176 H85         1.6900    2.4260    1.0230 hc        1 MOL      0.023576
    177 N15         5.2470   -0.3940    3.2530 n         1 MOL      0.009866
    178 C54         5.8840   -0.9930    4.4180 c3        1 MOL     -0.345547
    179 H86         5.1200   -1.3800    5.0910 h1        1 MOL      0.126970
    180 H87         6.5330   -1.8090    4.0990 h1        1 MOL      0.126970
    181 H88         6.4760   -0.2400    4.9360 h1        1 MOL      0.126970
    182 H89         5.2120   -0.9700    2.4250 hn        1 MOL      0.069096
    183 Ca1        -2.0090   -0.0320   -1.2680 Ca        1 MOL      1.783576
    184 O25        -1.0220   -1.8470   -2.8790 oh        1 MOL     -0.854963
    185 H90        -1.5260   -2.3750   -3.4940 ho        1 MOL      0.401772
    186 H91        -0.1520   -1.7620   -3.2950 ho        1 MOL      0.401772
    187 O26        -0.5390    1.4060   -2.9730 oh        1 MOL     -0.854963
    188 H92         0.1890    1.6530   -3.5390 ho        1 MOL      0.401772
    189 H93        -1.2180    2.0520   -3.1410 ho        1 MOL      0.401772
@<TRIPOS>BOND
     1    1    2 1   
     2    1    4 1   
     3    1    5 1   
     4    1    6 1   
     5    2    3 2   
     6    2    7 1   
     7    7    8 1   
     8    7   15 1   
     9    8    9 1   
    10    8   11 1   
    11    8   16 1   
    12    9   10 2   
    13    9   19 1   
    14   11   12 1   
    15   11   17 1   
    16   11   18 1   
    17   12   13 1   
    18   12   14 1   
    19   19   20 1   
    20   19   28 1   
    21   20   21 1   
    22   20   23 1   
    23   20   29 1   
    24   21   22 2   
    25   21   41 1   
    26   23   24 1   
    27   23   30 1   
    28   23   31 1   
    29   24   25 1   
    30   24   32 1   
    31   24   33 1   
    32   25   26 1   
    33   25   34 1   
    34   25   35 1   
    35   26   27 1   
    36   26   36 1   
    37   26   37 1   
    38   27   38 1   
    39   27   39 1   
    40   27   40 1   
    41   41   42 1   
    42   41   49 1   
    43   42   43 1   
    44   42   45 1   
    45   42   50 1   
    46   43   44 2   
    47   43   53 1   
    48   45   46 1   
    49   45   51 1   
    50   45   52 1   
    51   46   47 1   
    52   46   48 1   
    53   53   54 1   
    54   53   57 1   
    55   54   55 1   
    56   54   58 1   
    57   54   59 1   
    58   55   56 2   
    59   55   60 1   
    60   60   61 1   
    61   60   68 1   
    62   61   62 1   
    63   61   64 1   
    64   61   69 1   
    65   62   63 2   
    66   62   72 1   
    67   64   65 1   
    68   64   70 1   
    69   64   71 1   
    70   65   66 1   
    71   65   67 1   
    72   72   73 1   
    73   72   76 1   
    74   73   74 1   
    75   73   77 1   
    76   73   78 1   
    77   74   75 2   
    78   74   79 1   
    79   79   80 1   
    80   79   86 1   
    81   80   81 1   
    82   80   83 1   
    83   80   87 1   
    84   81   82 2   
    85   81   93 1   
    86   83   84 1   
    87   83   85 1   
    88   83   88 1   
    89   84   90 1   
    90   84   91 1   
    91   84   92 1   
    92   85   89 1   
    93   93   94 1   
    94   93  101 1   
    95   94   95 1   
    96   94   97 1   
    97   94  102 1   
    98   95   96 2   
    99   95  112 1   
   100   97   98 1   
   101   97   99 1   
   102   97  103 1   
   103   98  100 1   
   104   98  104 1   
   105   98  105 1   
   106   99  106 1   
   107   99  107 1   
   108   99  108 1   
   109  100  109 1   
   110  100  110 1   
   111  100  111 1   
   112  112  113 1   
   113  112  119 1   
   114  113  114 1   
   115  113  116 1   
   116  113  120 1   
   117  114  115 2   
   118  114  126 1   
   119  116  117 1   
   120  116  118 1   
   121  116  121 1   
   122  117  123 1   
   123  117  124 1   
   124  117  125 1   
   125  118  122 1   
   126  126  127 1   
   127  126  133 1   
   128  127  128 1   
   129  127  130 1   
   130  127  134 1   
   131  128  129 2   
   132  128  140 1   
   133  130  131 1   
   134  130  132 1   
   135  130  135 1   
   136  131  137 1   
   137  131  138 1   
   138  131  139 1   
   139  132  136 1   
   140  140  141 1   
   141  140  149 1   
   142  141  142 1   
   143  141  144 1   
   144  141  150 1   
   145  142  143 2   
   146  142  162 1   
   147  144  145 1   
   148  144  151 1   
   149  144  152 1   
   150  145  146 1   
   151  145  153 1   
   152  145  154 1   
   153  146  147 1   
   154  146  155 1   
   155  146  156 1   
   156  147  148 1   
   157  147  157 1   
   158  147  158 1   
   159  148  159 1   
   160  148  160 1   
   161  148  161 1   
   162  162  163 1   
   163  162  171 1   
   164  163  164 1   
   165  163  166 1   
   166  163  172 1   
   167  164  165 2   
   168  164  177 1   
   169  166  167 1   
   170  166  173 1   
   171  166  174 1   
   172  167  168 1   
   173  167  175 1   
   174  167  176 1   
   175  168  169 1   
   176  168  170 1   
   177  177  178 1   
   178  177  182 1   
   179  178  179 1   
   180  178  180 1   
   181  178  181 1   
   182  184  185 1   
   183  184  186 1   
   184  187  188 1   
   185  187  189 1   
@<TRIPOS>SUBSTRUCTURE
     1 MOL         1 TEMP              0 ****  ****    0 ROOT
