@<TRIPOS>MOLECULE
MOL
  179   176     1     0     0
SMALL
resp


@<TRIPOS>ATOM
      1 C1          1.7830    3.7520    4.2790 c3        1 MOL     -0.341460
      2 C2          0.9220    3.4280    3.0480 c         1 MOL      0.565726
      3 O1          1.4010    3.5410    1.9520 o         1 MOL     -0.547052
      4 H1          2.7670    3.2950    4.1630 hc        1 MOL      0.093656
      5 H2          1.8930    4.8320    4.3740 hc        1 MOL      0.093656
      6 H3          1.3030    3.3550    5.1730 hc        1 MOL      0.093656
      7 N1         -0.3440    3.0110    3.2260 n         1 MOL     -0.560139
      8 C3         -1.2600    2.5940    2.1080 c3        1 MOL      0.088584
      9 C4         -1.9670    3.8070    1.4730 c         1 MOL      0.516013
     10 O2         -3.1720    3.9800    1.5510 o         1 MOL     -0.441176
     11 C5         -2.3000    1.5040    2.5800 c3        1 MOL     -0.130010
     12 C6         -3.2740    1.1350    1.4550 c         1 MOL      0.501030
     13 O3         -4.4620    1.0180    1.7810 o         1 MOL     -0.580194
     14 O4         -2.8880    1.0740    0.2560 o         1 MOL     -0.580194
     15 H4         -0.6960    2.8780    4.1680 hn        1 MOL      0.337493
     16 H5         -0.6070    2.1790    1.3420 h1        1 MOL      0.047569
     17 H6         -2.7570    1.8620    3.5010 hc        1 MOL      0.044639
     18 H7         -1.8260    0.5350    2.7600 hc        1 MOL      0.044639
     19 N2         -1.1940    4.6540    0.8330 n         1 MOL     -0.486322
     20 C7         -1.7380    5.9810    0.4370 c3        1 MOL      0.004774
     21 C8         -2.8420    5.9150   -0.6380 c         1 MOL      0.493770
     22 O5         -3.6480    6.8060   -0.7440 o         1 MOL     -0.536545
     23 C9         -0.7080    6.9900   -0.0600 c3        1 MOL     -0.118301
     24 C10         0.5060    7.2830    0.9480 c3        1 MOL      0.340185
     25 C11         1.6270    8.1040    0.3400 c3        1 MOL     -0.169466
     26 C12         2.8440    8.4790    1.1730 c3        1 MOL      0.047833
     27 N3          3.5880    7.2930    1.6210 n4        1 MOL     -0.214654
     28 H8         -0.2030    4.4550    0.9070 hn        1 MOL      0.375658
     29 H9         -2.1930    6.4740    1.2840 h1        1 MOL      0.078105
     30 H10        -1.2600    7.9140   -0.2370 hc        1 MOL      0.046767
     31 H11        -0.2970    6.6330   -1.0040 hc        1 MOL      0.046767
     32 H12         0.9820    6.3180    1.1410 hc        1 MOL     -0.093657
     33 H13         0.2160    7.7510    1.8910 hc        1 MOL     -0.093657
     34 H14         1.0790    9.0020    0.0450 hc        1 MOL      0.062008
     35 H15         1.9830    7.5130   -0.5050 hc        1 MOL      0.062008
     36 H16         2.6400    8.9840    2.1210 hx        1 MOL      0.075150
     37 H17         3.5150    9.0860    0.5570 hx        1 MOL      0.075150
     38 H18         3.1260    6.8170    2.3890 hn        1 MOL      0.292583
     39 H19         3.6790    6.5460    0.9620 hn        1 MOL      0.292583
     40 H20         4.4490    7.5530    2.0780 hn        1 MOL      0.292583
     41 N4         -2.9320    4.7800   -1.3720 n         1 MOL     -0.192366
     42 C13        -3.9390    4.5260   -2.4240 c3        1 MOL     -0.110775
     43 C14        -5.2640    3.9360   -1.8820 c         1 MOL      0.315491
     44 O6         -6.2920    3.7980   -2.5930 o         1 MOL     -0.506461
     45 C15        -3.3120    3.5740   -3.4260 c3        1 MOL     -0.163301
     46 C16        -2.5670    2.3770   -2.7790 c         1 MOL      0.746010
     47 O7         -2.8900    1.2130   -2.9600 o         1 MOL     -0.746119
     48 O8         -1.4840    2.5790   -2.1720 o         1 MOL     -0.746119
     49 H21        -2.4830    3.9730   -0.9710 hn        1 MOL      0.090748
     50 H22        -4.1140    5.4660   -2.9460 h1        1 MOL      0.141426
     51 H23        -2.6280    4.2060   -3.9990 hc        1 MOL      0.064990
     52 H24        -3.9890    3.1870   -4.1850 hc        1 MOL      0.064990
     53 N5         -5.2520    3.4130   -0.6670 n         1 MOL      0.129258
     54 C17        -6.4810    2.9060   -0.0080 c3        1 MOL     -0.236206
     55 C18        -7.0400    1.6160   -0.6230 c         1 MOL      0.524546
     56 O9         -8.2050    1.5620   -1.0100 o         1 MOL     -0.533931
     57 H25        -4.4360    3.5110   -0.0840 hn        1 MOL      0.054794
     58 H26        -7.1760    3.7430   -0.0380 h1        1 MOL      0.103934
     59 H27        -6.2570    2.5840    1.0060 h1        1 MOL      0.103934
     60 N6         -6.0900    0.6400   -0.8490 n         1 MOL     -0.126960
     61 C19        -6.3880   -0.7120   -1.4000 c3        1 MOL     -0.044768
     62 C20        -6.3500   -1.7620   -0.2680 c         1 MOL      0.306055
     63 O10        -6.7760   -2.9110   -0.5200 o         1 MOL     -0.498749
     64 C21        -5.4810   -1.1470   -2.5720 c3        1 MOL     -0.131023
     65 C22        -4.1040   -1.6900   -2.2200 c         1 MOL      0.562926
     66 N7         -3.4080   -2.4130   -3.0360 n         1 MOL     -0.729848
     67 O11        -3.4950   -1.4050   -1.2010 o         1 MOL     -0.358565
     68 H28        -5.1280    0.9000   -0.6770 hn        1 MOL      0.025927
     69 H29        -7.4160   -0.7870   -1.7780 h1        1 MOL      0.113859
     70 H30        -5.2550   -0.2790   -3.1900 hc        1 MOL      0.078102
     71 H31        -5.9310   -1.8660   -3.2580 hc        1 MOL      0.078102
     72 H32        -3.6990   -2.6090   -3.9870 hn        1 MOL      0.346453
     73 H33        -2.4920   -2.6150   -2.6570 hn        1 MOL      0.346453
     74 N8         -5.8530   -1.4510    0.9160 n         1 MOL     -0.183561
     75 C23        -5.8780   -2.2380    2.1610 c3        1 MOL     -0.056977
     76 C24        -4.4630   -2.9620    2.3330 c         1 MOL      0.329516
     77 O12        -4.4030   -3.8060    3.2840 o         1 MOL     -0.552480
     78 H34        -5.4360   -0.5420    1.0060 hn        1 MOL      0.141208
     79 H35        -6.6810   -2.9720    2.1250 h1        1 MOL      0.108324
     80 H36        -6.2040   -1.6420    3.0160 h1        1 MOL      0.108324
     81 N9         -3.5190   -2.8130    1.3810 n         1 MOL     -0.006022
     82 C25        -2.2160   -3.5530    1.4180 c3        1 MOL      0.142705
     83 C26        -1.0270   -2.6480    1.2670 c         1 MOL      0.356643
     84 O13        -1.1640   -1.5170    0.8140 o         1 MOL     -0.642547
     85 C27        -2.2700   -4.7060    0.3540 c3        1 MOL      0.057409
     86 C28        -3.4690   -5.6900    0.3890 ca        1 MOL     -0.096289
     87 C29        -4.5370   -5.4670   -0.4390 ca        1 MOL     -0.033589
     88 C30        -3.4880   -6.7800    1.3320 ca        1 MOL     -0.033589
     89 C31        -5.5810   -6.3840   -0.4190 ca        1 MOL     -0.320212
     90 C32        -4.5010   -7.7330    1.2690 ca        1 MOL     -0.320212
     91 C33        -5.5430   -7.5720    0.3750 ca        1 MOL      0.358953
     92 O14        -6.5920   -8.4110    0.1760 oh        1 MOL     -0.442115
     93 H37        -3.5830   -2.1480    0.6310 hn        1 MOL      0.130939
     94 H38        -2.0410   -4.0390    2.3860 h1        1 MOL      0.012192
     95 H39        -1.3700   -5.3190    0.3270 hc        1 MOL     -0.020310
     96 H40        -2.3500   -4.1900   -0.6010 hc        1 MOL     -0.020310
     97 H41        -4.5740   -4.5790   -1.0470 ha        1 MOL      0.083867
     98 H42        -2.6280   -6.9700    1.9630 ha        1 MOL      0.083867
     99 H43        -6.5450   -6.1430   -0.8330 ha        1 MOL      0.154916
    100 H44        -4.5310   -8.5220    2.0060 ha        1 MOL      0.154916
    101 H45        -6.4550   -9.0530    0.8850 ho        1 MOL      0.327461
    102 N10         0.1500   -3.0920    1.6700 n         1 MOL     -0.357597
    103 C34         1.4440   -2.5230    1.5360 c3        1 MOL     -0.007642
    104 C35         2.3770   -3.4870    0.8150 c         1 MOL      0.508326
    105 O15         2.3770   -4.6860    0.9730 o         1 MOL     -0.537924
    106 C36         1.9180   -2.0450    2.9560 c3        1 MOL      0.076448
    107 C37         0.9650   -0.9960    3.5480 c3        1 MOL     -0.142296
    108 C38         3.3960   -1.6300    2.9040 c3        1 MOL     -0.173959
    109 C39         1.1540   -0.7670    5.0590 c3        1 MOL     -0.204657
    110 H46         0.1450   -3.9340    2.2320 hn        1 MOL      0.265803
    111 H47         1.3680   -1.6410    0.9130 h1        1 MOL      0.105878
    112 H48         1.8840   -2.8280    3.7130 hc        1 MOL      0.045701
    113 H49        -0.0680   -1.3310    3.4180 hc        1 MOL      0.123258
    114 H50         1.1750   -0.0460    3.0640 hc        1 MOL      0.123258
    115 H51         4.0970   -2.4580    3.0270 hc        1 MOL      0.032617
    116 H52         3.5760   -0.9580    2.0700 hc        1 MOL      0.032617
    117 H53         3.6210   -0.8870    3.6680 hc        1 MOL      0.032617
    118 H54         1.0530   -1.7150    5.6020 hc        1 MOL      0.052913
    119 H55         2.0720   -0.2370    5.3310 hc        1 MOL      0.052913
    120 H56         0.3890   -0.0660    5.4130 hc        1 MOL      0.052913
    121 N11         3.3360   -2.8980    0.0270 n         1 MOL     -0.320310
    122 C40         4.4800   -3.5740   -0.7130 c3        1 MOL      0.109416
    123 C41         5.8350   -3.1600   -0.1460 c         1 MOL      0.360324
    124 O16         5.9380   -2.2080    0.5690 o         1 MOL     -0.339247
    125 C42         4.4150   -3.3310   -2.2430 c3        1 MOL     -0.249376
    126 O17         5.0540   -2.0580   -2.5720 oh        1 MOL     -0.336583
    127 H57         3.4490   -1.9020    0.1420 hn        1 MOL      0.281284
    128 H58         4.4010   -4.6590   -0.6470 h1        1 MOL      0.075205
    129 H59         3.3910   -3.3050   -2.6320 h1        1 MOL      0.123293
    130 H60         5.0720   -4.1230   -2.6040 h1        1 MOL      0.123293
    131 H61         5.2210   -2.1140   -3.5160 ho        1 MOL      0.340590
    132 N12         6.8880   -3.9000   -0.5380 n         1 MOL     -0.453321
    133 C43         8.2530   -3.4660   -0.2410 c3        1 MOL      0.199611
    134 C44         8.6470   -2.0440   -0.7240 c         1 MOL      0.322247
    135 O18         9.4380   -1.3430   -0.0530 o         1 MOL     -0.507747
    136 C45         9.2790   -4.4610   -0.6750 c3        1 MOL     -0.463030
    137 H62         6.8040   -4.6780   -1.1690 hn        1 MOL      0.304093
    138 H63         8.1580   -3.4460    0.8460 h1        1 MOL      0.094369
    139 H64        10.2920   -4.1100   -0.4870 hc        1 MOL      0.139136
    140 H65         9.1870   -5.2870    0.0220 hc        1 MOL      0.139136
    141 H66         9.1250   -4.7510   -1.7140 hc        1 MOL      0.139136
    142 N13         8.2540   -1.6260   -1.9090 n         1 MOL     -0.209882
    143 C46         8.5410   -0.2820   -2.3880 c3        1 MOL      0.143487
    144 C47         7.6170    0.8150   -1.7470 c         1 MOL      0.318833
    145 O19         7.9860    1.9900   -1.6380 o         1 MOL     -0.481458
    146 C48         8.3690   -0.3100   -3.9280 c3        1 MOL     -0.258950
    147 H67         7.7310   -2.2490   -2.5090 hn        1 MOL      0.207790
    148 H68         9.5770    0.0190   -2.1950 h1        1 MOL      0.100402
    149 H69         9.2120   -0.8260   -4.3750 hc        1 MOL      0.069832
    150 H70         7.5370   -0.9450   -4.2470 hc        1 MOL      0.069832
    151 H71         8.1900    0.7040   -4.2780 hc        1 MOL      0.069832
    152 N14         6.3420    0.4360   -1.3400 n         1 MOL     -0.031334
    153 C49         5.4990    1.2650   -0.4980 c3        1 MOL     -0.152315
    154 C50         5.8890    1.4690    0.9680 c         1 MOL      0.478448
    155 O20         5.6950    2.5540    1.5190 o         1 MOL     -0.590836
    156 C51         4.0790    0.7560   -0.3510 c3        1 MOL      0.075382
    157 C52         3.2140    0.6840   -1.5490 c3        1 MOL      0.032126
    158 C53         1.8160    0.1710   -1.2530 c         1 MOL      0.551409
    159 O21         1.4040   -0.8700   -1.7970 o         1 MOL     -0.698691
    160 O22         1.0190    0.7660   -0.4940 o         1 MOL     -0.698691
    161 H72         6.0230   -0.5020   -1.5410 hn        1 MOL     -0.029521
    162 H73         5.3080    2.2390   -0.9390 h1        1 MOL      0.100165
    163 H74         3.5530    1.3320    0.4050 hc        1 MOL      0.037256
    164 H75         4.0980   -0.2810   -0.0150 hc        1 MOL      0.037256
    165 H76         3.7460    0.0080   -2.2220 hc        1 MOL     -0.030970
    166 H77         3.1770    1.6450   -2.0610 hc        1 MOL     -0.030970
    167 N15         6.6240    0.4900    1.5090 n         1 MOL     -0.020069
    168 C54         7.4050    0.5620    2.7200 c3        1 MOL     -0.282562
    169 H78         8.1140   -0.2660    2.7430 h1        1 MOL      0.108570
    170 H79         7.9490    1.5060    2.7470 h1        1 MOL      0.108570
    171 H80         6.7440    0.4980    3.5840 h1        1 MOL      0.108570
    172 H81         6.6000   -0.3940    1.0310 hn        1 MOL      0.052510
    173 Ca1        -1.3590   -0.0450   -1.3600 Ca        1 MOL      1.693812
    174 O23        -0.5890   -0.1750   -4.0180 oh        1 MOL     -0.811291
    175 H82         0.3260   -0.4000   -4.2170 ho        1 MOL      0.399112
    176 H83        -0.7190    0.6770   -4.4290 ho        1 MOL      0.399112
    177 O24        -0.5570   -2.4580   -1.9970 oh        1 MOL     -0.811291
    178 H84        -0.5910   -3.4130   -2.0610 ho        1 MOL      0.399112
    179 H85         0.3670   -2.2460   -2.0740 ho        1 MOL      0.399112
@<TRIPOS>BOND
     1    1    2 1   
     2    1    4 1   
     3    1    5 1   
     4    1    6 1   
     5    2    3 2   
     6    2    7 1   
     7    7    8 1   
     8    7   15 1   
     9    8    9 1   
    10    8   11 1   
    11    8   16 1   
    12    9   10 2   
    13    9   19 1   
    14   11   12 1   
    15   11   17 1   
    16   11   18 1   
    17   12   13 1   
    18   12   14 1   
    19   19   20 1   
    20   19   28 1   
    21   20   21 1   
    22   20   23 1   
    23   20   29 1   
    24   21   22 2   
    25   21   41 1   
    26   23   24 1   
    27   23   30 1   
    28   23   31 1   
    29   24   25 1   
    30   24   32 1   
    31   24   33 1   
    32   25   26 1   
    33   25   34 1   
    34   25   35 1   
    35   26   27 1   
    36   26   36 1   
    37   26   37 1   
    38   27   38 1   
    39   27   39 1   
    40   27   40 1   
    41   41   42 1   
    42   41   49 1   
    43   42   43 1   
    44   42   45 1   
    45   42   50 1   
    46   43   44 2   
    47   43   53 1   
    48   45   46 1   
    49   45   51 1   
    50   45   52 1   
    51   46   47 1   
    52   46   48 1   
    53   53   54 1   
    54   53   57 1   
    55   54   55 1   
    56   54   58 1   
    57   54   59 1   
    58   55   56 2   
    59   55   60 1   
    60   60   61 1   
    61   60   68 1   
    62   61   62 1   
    63   61   64 1   
    64   61   69 1   
    65   62   63 2   
    66   62   74 1   
    67   64   65 1   
    68   64   70 1   
    69   64   71 1   
    70   65   66 1   
    71   65   67 2   
    72   66   72 1   
    73   66   73 1   
    74   74   75 1   
    75   74   78 1   
    76   75   76 1   
    77   75   79 1   
    78   75   80 1   
    79   76   77 2   
    80   76   81 1   
    81   81   82 1   
    82   81   93 1   
    83   82   83 1   
    84   82   85 1   
    85   82   94 1   
    86   83   84 2   
    87   83  102 1   
    88   85   86 1   
    89   85   95 1   
    90   85   96 1   
    91   86   87 ar  
    92   86   88 ar  
    93   87   89 ar  
    94   87   97 1   
    95   88   90 ar  
    96   88   98 1   
    97   89   91 ar  
    98   89   99 1   
    99   90   91 ar  
   100   90  100 1   
   101   91   92 1   
   102   92  101 1   
   103  102  103 1   
   104  102  110 1   
   105  103  104 1   
   106  103  106 1   
   107  103  111 1   
   108  104  105 2   
   109  104  121 1   
   110  106  107 1   
   111  106  108 1   
   112  106  112 1   
   113  107  109 1   
   114  107  113 1   
   115  107  114 1   
   116  108  115 1   
   117  108  116 1   
   118  108  117 1   
   119  109  118 1   
   120  109  119 1   
   121  109  120 1   
   122  121  122 1   
   123  121  127 1   
   124  122  123 1   
   125  122  125 1   
   126  122  128 1   
   127  123  124 2   
   128  123  132 1   
   129  125  126 1   
   130  125  129 1   
   131  125  130 1   
   132  126  131 1   
   133  132  133 1   
   134  132  137 1   
   135  133  134 1   
   136  133  136 1   
   137  133  138 1   
   138  134  135 2   
   139  134  142 1   
   140  136  139 1   
   141  136  140 1   
   142  136  141 1   
   143  142  143 1   
   144  142  147 1   
   145  143  144 1   
   146  143  146 1   
   147  143  148 1   
   148  144  145 2   
   149  144  152 1   
   150  146  149 1   
   151  146  150 1   
   152  146  151 1   
   153  152  153 1   
   154  152  161 1   
   155  153  154 1   
   156  153  156 1   
   157  153  162 1   
   158  154  155 2   
   159  154  167 1   
   160  156  157 1   
   161  156  163 1   
   162  156  164 1   
   163  157  158 1   
   164  157  165 1   
   165  157  166 1   
   166  158  159 1   
   167  158  160 1   
   168  167  168 1   
   169  167  172 1   
   170  168  169 1   
   171  168  170 1   
   172  168  171 1   
   173  174  175 1   
   174  174  176 1   
   175  177  178 1   
   176  177  179 1   
@<TRIPOS>SUBSTRUCTURE
     1 MOL         1 TEMP              0 ****  ****    0 ROOT
