@<TRIPOS>MOLECULE
MOL
  189   185     1     0     0
SMALL
resp


@<TRIPOS>ATOM
      1 C1          1.0150   -2.9210    6.2370 c3        1 MOL     -0.466546
      2 C2          1.1630   -2.6460    4.7050 c         1 MOL      0.729505
      3 O1          0.8180   -1.6720    4.1180 o         1 MOL     -0.547562
      4 H1          1.9790   -2.7800    6.7250 hc        1 MOL      0.119566
      5 H2          0.2880   -2.2300    6.6610 hc        1 MOL      0.119566
      6 H3          0.6770   -3.9450    6.3910 hc        1 MOL      0.119566
      7 N1          1.8920   -3.6290    4.1120 n         1 MOL     -0.621289
      8 C3          2.3550   -3.4660    2.7300 c3        1 MOL      0.264879
      9 C4          2.1540   -4.7600    1.9040 c         1 MOL      0.403876
     10 O2          2.2240   -5.8490    2.4380 o         1 MOL     -0.582500
     11 C5          3.8480   -3.0600    2.7500 c3        1 MOL     -0.175006
     12 C6          4.4280   -2.5290    1.4360 c         1 MOL      0.698650
     13 O3          3.7000   -2.2100    0.4580 o         1 MOL     -0.672642
     14 O4          5.6640   -2.2520    1.4760 o         1 MOL     -0.672642
     15 H4          2.2680   -4.4140    4.6300 hn        1 MOL      0.321872
     16 H5          1.8040   -2.7360    2.1300 h1        1 MOL      0.052844
     17 H6          4.4830   -3.8990    3.0360 hc        1 MOL      0.022400
     18 H7          3.9430   -2.3250    3.5540 hc        1 MOL      0.022400
     19 N2          1.9480   -4.6170    0.5830 n         1 MOL     -0.016987
     20 C7          2.1720   -5.7510   -0.3510 c3        1 MOL     -0.183432
     21 C8          2.9740   -5.2920   -1.5820 c         1 MOL      0.436871
     22 O5          3.2170   -6.1040   -2.4680 o         1 MOL     -0.564909
     23 C9          0.8000   -6.2280   -0.8950 c3        1 MOL      0.063352
     24 C10        -0.0740   -5.1630   -1.4550 c3        1 MOL      0.179495
     25 C11         0.1850   -7.0920    0.2410 c3        1 MOL     -0.063050
     26 C12        -1.1060   -5.8080   -2.3770 c3        1 MOL     -0.272243
     27 H8          1.5990   -3.7560    0.1670 hn        1 MOL      0.034160
     28 H9          2.7990   -6.4990    0.1320 h1        1 MOL      0.124630
     29 H10         1.0160   -6.9420   -1.6810 hc        1 MOL      0.012349
     30 H11         0.4410   -4.4690   -2.1020 hc        1 MOL      0.026131
     31 H12        -0.5060   -4.5250   -0.6900 hc        1 MOL      0.026131
     32 H13         0.0400   -6.5140    1.1540 hc        1 MOL     -0.002606
     33 H14        -0.8340   -7.3300   -0.0600 hc        1 MOL     -0.002606
     34 H15         0.6570   -8.0380    0.4860 hc        1 MOL     -0.002606
     35 H16        -1.3760   -5.1010   -3.1640 hc        1 MOL      0.052654
     36 H17        -0.7210   -6.7540   -2.7780 hc        1 MOL      0.052654
     37 H18        -2.0370   -6.0100   -1.8460 hc        1 MOL      0.052654
     38 N3          3.3760   -4.0140   -1.7050 n         1 MOL     -0.266485
     39 C13         4.0800   -3.5800   -2.9600 c3        1 MOL      0.029874
     40 C14         5.3310   -2.7190   -2.7930 c         1 MOL      0.448587
     41 O6          6.0630   -2.5020   -3.8040 o         1 MOL     -0.578958
     42 C15         3.0440   -3.0110   -3.9710 c3        1 MOL     -0.110523
     43 C16         2.1470   -1.8660   -3.3910 c         1 MOL      0.692862
     44 O7          2.6350   -1.0200   -2.6250 o         1 MOL     -0.684054
     45 O8          0.9690   -1.7520   -3.8140 o         1 MOL     -0.684054
     46 H19         3.2070   -3.3340   -0.9680 hn        1 MOL      0.098913
     47 H20         4.4970   -4.4390   -3.4970 h1        1 MOL      0.093316
     48 H21         2.5010   -3.8600   -4.3890 hc        1 MOL      0.029824
     49 H22         3.5410   -2.6100   -4.8500 hc        1 MOL      0.029824
     50 N4          5.6870   -2.2960   -1.5790 n         1 MOL     -0.282007
     51 C17         7.0880   -1.9240   -1.3980 c3        1 MOL     -0.109951
     52 C18         7.4050   -0.4340   -1.5960 c         1 MOL      0.527177
     53 O9          8.4320    0.0610   -1.2190 o         1 MOL     -0.624543
     54 H23         5.1300   -2.3700   -0.7400 hn        1 MOL      0.226387
     55 H24         7.8050   -2.5190   -1.9490 h1        1 MOL      0.080553
     56 H25         7.3730   -2.1220   -0.3660 h1        1 MOL      0.080553
     57 N5          6.3550    0.2760   -2.0250 n         1 MOL     -0.241494
     58 C19         6.4600    1.6380   -2.6300 c3        1 MOL     -0.023106
     59 C20         6.5740    2.8740   -1.6470 c         1 MOL      0.426339
     60 O10         6.4350    4.0350   -1.9840 o         1 MOL     -0.486277
     61 C21         5.2090    1.7980   -3.4550 c3        1 MOL     -0.353253
     62 C22         3.9500    2.2170   -2.6050 c         1 MOL      0.737042
     63 O11         3.6990    1.6560   -1.4940 o         1 MOL     -0.684980
     64 O12         3.0770    2.9570   -3.1520 o         1 MOL     -0.684980
     65 H26         5.4780   -0.2170   -2.1360 hn        1 MOL      0.191471
     66 H27         7.3280    1.6840   -3.2990 h1        1 MOL      0.097986
     67 H28         4.9770    0.8360   -3.9180 hc        1 MOL      0.106891
     68 H29         5.4840    2.6080   -4.1310 hc        1 MOL      0.106891
     69 N6          6.7800    2.5510   -0.3470 n         1 MOL     -0.339907
     70 C23         6.8940    3.4230    0.8460 c3        1 MOL     -0.012145
     71 C24         5.7130    4.3480    1.0450 c         1 MOL      0.557198
     72 O13         5.9750    5.5070    1.3540 o         1 MOL     -0.600915
     73 H30         6.8450    1.5950   -0.0530 hn        1 MOL      0.317539
     74 H31         7.7970    4.0130    0.7430 h1        1 MOL      0.034431
     75 H32         7.0290    2.8730    1.7740 h1        1 MOL      0.034431
     76 N7          4.5220    3.8950    0.8680 n         1 MOL     -0.338662
     77 C25         3.2500    4.4530    1.3280 c3        1 MOL     -0.021374
     78 C26         2.2210    3.3460    1.4990 c         1 MOL      0.398436
     79 O14         2.3550    2.2390    0.9830 o         1 MOL     -0.412773
     80 C27         2.6820    5.4580    0.3030 c3        1 MOL     -0.003741
     81 C28         3.2300    6.8460    0.5590 c3        1 MOL     -0.305046
     82 C29         2.4680    7.9980   -0.1210 c         1 MOL      0.626158
     83 N8          2.1760    7.8120   -1.3650 n         1 MOL     -0.755222
     84 O15         2.0430    9.0080    0.4480 o         1 MOL     -0.606095
     85 H33         4.3500    3.0300    0.3810 hn        1 MOL      0.277119
     86 H34         3.4200    4.9390    2.2910 h1        1 MOL      0.069403
     87 H35         1.5940    5.4050    0.3610 hc        1 MOL      0.074589
     88 H36         2.9240    5.0420   -0.6790 hc        1 MOL      0.074589
     89 H37         4.2350    6.9440    0.1520 hc        1 MOL      0.117710
     90 H38         3.3890    7.0040    1.6240 hc        1 MOL      0.117710
     91 H39         2.4420    6.9610   -1.8330 hn        1 MOL      0.357263
     92 H40         1.5800    8.5460   -1.7180 hn        1 MOL      0.357263
     93 N9          1.0810    3.5820    2.2130 n         1 MOL     -0.534576
     94 C30         0.0140    2.6080    2.3750 c3        1 MOL      0.091842
     95 C31        -1.1510    3.0680    1.5490 c         1 MOL      0.600103
     96 O16        -1.4240    4.2630    1.4920 o         1 MOL     -0.606612
     97 C32        -0.2680    2.3950    3.8950 c3        1 MOL      0.126579
     98 C33        -0.9720    3.5740    4.5940 c3        1 MOL     -0.309310
     99 C34        -1.2510    1.2420    4.1380 c3        1 MOL     -0.309310
    100 H41         0.9930    4.5130    2.5930 hn        1 MOL      0.305441
    101 H42         0.3390    1.6290    2.0010 h1        1 MOL      0.145613
    102 H43         0.6890    2.0560    4.3030 hc        1 MOL      0.011937
    103 H44        -0.3370    4.4280    4.3740 hc        1 MOL      0.068931
    104 H45        -1.9920    3.6990    4.2130 hc        1 MOL      0.068931
    105 H46        -1.0700    3.5160    5.6810 hc        1 MOL      0.068931
    106 H47        -0.8200    0.3480    3.6880 hc        1 MOL      0.068931
    107 H48        -1.2990    0.9430    5.1860 hc        1 MOL      0.068931
    108 H49        -2.2440    1.4550    3.7380 hc        1 MOL      0.068931
    109 N10        -1.8630    2.1760    0.9200 n         1 MOL     -0.273191
    110 C35        -3.1780    2.3280    0.1990 c3        1 MOL      0.138743
    111 C36        -4.3120    1.8750    1.1290 c         1 MOL      0.255279
    112 O17        -4.0830    1.0730    2.0590 o         1 MOL     -0.378902
    113 C37        -3.0980    1.5520   -1.0760 c3        1 MOL     -0.299592
    114 C38        -4.2630    1.8380   -2.1040 c         1 MOL      0.527365
    115 N11        -4.5110    3.0710   -2.4260 n         1 MOL     -0.614674
    116 O18        -5.1100    0.9820   -2.3570 o         1 MOL     -0.429056
    117 H50        -1.5170    1.2380    0.8170 hn        1 MOL      0.087252
    118 H51        -3.3240    3.3890    0.0280 h1        1 MOL      0.027088
    119 H52        -2.9490    0.4780   -1.0090 hc        1 MOL      0.165150
    120 H53        -2.1420    1.8020   -1.5380 hc        1 MOL      0.165150
    121 H54        -3.7700    3.7290   -2.2600 hn        1 MOL      0.312062
    122 H55        -5.4760    3.3390   -2.6130 hn        1 MOL      0.312062
    123 N12        -5.5200    2.1060    0.7290 n         1 MOL     -0.092491
    124 C39        -6.7020    1.5480    1.2590 c3        1 MOL      0.010494
    125 C40        -6.8490    0.0430    1.0650 c         1 MOL      0.510480
    126 O19        -7.4700   -0.6580    1.8730 o         1 MOL     -0.586379
    127 C41        -7.8910    2.4180    0.7400 c3        1 MOL     -0.115742
    128 C42        -8.0460    2.5890   -0.7450 ca        1 MOL      0.032386
    129 C43        -8.3680    1.4700   -1.5670 ca        1 MOL     -0.155793
    130 C44        -7.6960    3.8220   -1.3160 ca        1 MOL     -0.155793
    131 C45        -8.2260    1.6070   -2.9740 ca        1 MOL     -0.301804
    132 C46        -7.6000    3.8890   -2.7050 ca        1 MOL     -0.301804
    133 C47        -7.9140    2.8190   -3.5060 ca        1 MOL      0.499050
    134 O20        -8.0480    2.9490   -4.8630 oh        1 MOL     -0.629254
    135 H56        -5.6260    2.7390   -0.0600 hn        1 MOL      0.121946
    136 H57        -6.8010    1.6850    2.3400 h1        1 MOL      0.072365
    137 H58        -7.8700    3.4350    1.1300 hc        1 MOL      0.040424
    138 H59        -8.7940    1.8750    1.0170 hc        1 MOL      0.040424
    139 H60        -8.5730    0.4800   -1.1910 ha        1 MOL      0.138681
    140 H61        -7.3820    4.6550   -0.7190 ha        1 MOL      0.138681
    141 H62        -8.4950    0.7960   -3.6400 ha        1 MOL      0.124459
    142 H63        -7.4160    4.8620   -3.1530 ha        1 MOL      0.124459
    143 H64        -8.7230    2.4320   -5.3080 ho        1 MOL      0.442899
    144 N13        -6.1630   -0.5400    0.0720 n         1 MOL     -0.119926
    145 C48        -6.0260   -1.9440   -0.1810 c3        1 MOL     -0.129066
    146 C49        -4.9210   -2.5710    0.6070 c         1 MOL      0.431789
    147 O21        -4.5920   -3.7770    0.3410 o         1 MOL     -0.556205
    148 C50        -5.8100   -2.1800   -1.6880 c3        1 MOL      0.167026
    149 C51        -7.0380   -1.8840   -2.4590 c3        1 MOL     -0.290273
    150 C52        -6.9680   -2.4710   -3.8760 c         1 MOL      0.697561
    151 O22        -6.7860   -3.7240   -3.9660 o         1 MOL     -0.717079
    152 O23        -7.0760   -1.8020   -4.9120 o         1 MOL     -0.717079
    153 H65        -5.8490    0.0790   -0.6710 hn        1 MOL      0.097745
    154 H66        -6.9440   -2.4130    0.1820 h1        1 MOL      0.111305
    155 H67        -5.6520   -3.2420   -1.8830 hc        1 MOL      0.017199
    156 H68        -4.9530   -1.6210   -2.0570 hc        1 MOL      0.017199
    157 H69        -7.1030   -0.7970   -2.5440 hc        1 MOL      0.055291
    158 H70        -7.8800   -2.3050   -1.8970 hc        1 MOL      0.055291
    159 N14        -4.3540   -1.8940    1.5950 n         1 MOL     -0.127774
    160 C53        -3.2550   -2.3810    2.5150 c3        1 MOL     -0.060533
    161 C54        -3.5670   -1.9870    3.9840 c         1 MOL      0.410466
    162 O24        -3.3150   -2.6730    4.9720 o         1 MOL     -0.547969
    163 C55        -1.9590   -1.6900    2.0390 c3        1 MOL      0.003977
    164 C56        -1.3880   -2.2570    0.7770 c3        1 MOL     -0.033142
    165 C57        -0.2210   -1.5040    0.1720 c         1 MOL      0.709544
    166 O25        -0.2540   -0.2520    0.1300 o         1 MOL     -0.689242
    167 O26         0.8880   -2.1140   -0.0020 o         1 MOL     -0.689242
    168 H71        -4.7460   -0.9940    1.8300 hn        1 MOL     -0.064035
    169 H72        -3.1940   -3.4690    2.5140 h1        1 MOL      0.101814
    170 H73        -1.1720   -1.7950    2.7950 hc        1 MOL      0.035277
    171 H74        -2.1820   -0.6280    1.9390 hc        1 MOL      0.035277
    172 H75        -2.1570   -2.3080    0.0080 hc        1 MOL      0.005944
    173 H76        -1.0270   -3.2400    1.0630 hc        1 MOL      0.005944
    174 N15        -4.2420   -0.8290    4.1170 n         1 MOL     -0.043191
    175 C58        -4.7660   -0.3260    5.4190 c3        1 MOL     -0.221517
    176 H77        -3.9370    0.0320    6.0300 h1        1 MOL      0.081373
    177 H78        -5.4650    0.4910    5.2390 h1        1 MOL      0.081373
    178 H79        -5.2780   -1.1340    5.9410 h1        1 MOL      0.081373
    179 H80        -4.2000   -0.2380    3.2980 hn        1 MOL      0.161064
    180 Ca1         2.4190   -0.1440   -0.1800 Ca        1 MOL      1.692351
    181 O27         4.9980    0.5140    1.0600 oh        1 MOL     -0.911920
    182 H81         5.3110   -0.3920    0.9670 ho        1 MOL      0.416795
    183 H82         5.0290    0.6900    2.0040 ho        1 MOL      0.416795
    184 O28         2.3950   -0.2350    2.4990 oh        1 MOL     -0.911920
    185 H83         1.7540   -0.7280    3.0090 ho        1 MOL      0.416795
    186 H84         3.1310   -0.1130    3.1030 ho        1 MOL      0.416795
    187 O29         0.9350    1.5080   -2.1740 oh        1 MOL     -0.911920
    188 H85         1.7170    2.0140   -2.3790 ho        1 MOL      0.416795
    189 H86         0.7040    1.0630   -2.9910 ho        1 MOL      0.416795
@<TRIPOS>BOND
     1    1    2 1   
     2    1    4 1   
     3    1    5 1   
     4    1    6 1   
     5    2    3 2   
     6    2    7 1   
     7    7    8 1   
     8    7   15 1   
     9    8    9 1   
    10    8   11 1   
    11    8   16 1   
    12    9   10 2   
    13    9   19 1   
    14   11   12 1   
    15   11   17 1   
    16   11   18 1   
    17   12   13 1   
    18   12   14 1   
    19   19   20 1   
    20   19   27 1   
    21   20   21 1   
    22   20   23 1   
    23   20   28 1   
    24   21   22 2   
    25   21   38 1   
    26   23   24 1   
    27   23   25 1   
    28   23   29 1   
    29   24   26 1   
    30   24   30 1   
    31   24   31 1   
    32   25   32 1   
    33   25   33 1   
    34   25   34 1   
    35   26   35 1   
    36   26   36 1   
    37   26   37 1   
    38   38   39 1   
    39   38   46 1   
    40   39   40 1   
    41   39   42 1   
    42   39   47 1   
    43   40   41 2   
    44   40   50 1   
    45   42   43 1   
    46   42   48 1   
    47   42   49 1   
    48   43   44 1   
    49   43   45 1   
    50   50   51 1   
    51   50   54 1   
    52   51   52 1   
    53   51   55 1   
    54   51   56 1   
    55   52   53 2   
    56   52   57 1   
    57   57   58 1   
    58   57   65 1   
    59   58   59 1   
    60   58   61 1   
    61   58   66 1   
    62   59   60 2   
    63   59   69 1   
    64   61   62 1   
    65   61   67 1   
    66   61   68 1   
    67   62   63 1   
    68   62   64 1   
    69   69   70 1   
    70   69   73 1   
    71   70   71 1   
    72   70   74 1   
    73   70   75 1   
    74   71   72 2   
    75   71   76 1   
    76   76   77 1   
    77   76   85 1   
    78   77   78 1   
    79   77   80 1   
    80   77   86 1   
    81   78   79 2   
    82   78   93 1   
    83   80   81 1   
    84   80   87 1   
    85   80   88 1   
    86   81   82 1   
    87   81   89 1   
    88   81   90 1   
    89   82   83 1   
    90   82   84 2   
    91   83   91 1   
    92   83   92 1   
    93   93   94 1   
    94   93  100 1   
    95   94   95 1   
    96   94   97 1   
    97   94  101 1   
    98   95   96 2   
    99   95  109 1   
   100   97   98 1   
   101   97   99 1   
   102   97  102 1   
   103   98  103 1   
   104   98  104 1   
   105   98  105 1   
   106   99  106 1   
   107   99  107 1   
   108   99  108 1   
   109  109  110 1   
   110  109  117 1   
   111  110  111 1   
   112  110  113 1   
   113  110  118 1   
   114  111  112 2   
   115  111  123 1   
   116  113  114 1   
   117  113  119 1   
   118  113  120 1   
   119  114  115 1   
   120  114  116 2   
   121  115  121 1   
   122  115  122 1   
   123  123  124 1   
   124  123  135 1   
   125  124  125 1   
   126  124  127 1   
   127  124  136 1   
   128  125  126 2   
   129  125  144 1   
   130  127  128 1   
   131  127  137 1   
   132  127  138 1   
   133  128  129 ar  
   134  128  130 ar  
   135  129  131 ar  
   136  129  139 1   
   137  130  132 ar  
   138  130  140 1   
   139  131  133 ar  
   140  131  141 1   
   141  132  133 ar  
   142  132  142 1   
   143  133  134 1   
   144  134  143 1   
   145  144  145 1   
   146  144  153 1   
   147  145  146 1   
   148  145  148 1   
   149  145  154 1   
   150  146  147 2   
   151  146  159 1   
   152  148  149 1   
   153  148  155 1   
   154  148  156 1   
   155  149  150 1   
   156  149  157 1   
   157  149  158 1   
   158  150  151 1   
   159  150  152 1   
   160  159  160 1   
   161  159  168 1   
   162  160  161 1   
   163  160  163 1   
   164  160  169 1   
   165  161  162 2   
   166  161  174 1   
   167  163  164 1   
   168  163  170 1   
   169  163  171 1   
   170  164  165 1   
   171  164  172 1   
   172  164  173 1   
   173  165  166 1   
   174  165  167 1   
   175  174  175 1   
   176  174  179 1   
   177  175  176 1   
   178  175  177 1   
   179  175  178 1   
   180  181  182 1   
   181  181  183 1   
   182  184  185 1   
   183  184  186 1   
   184  187  188 1   
   185  187  189 1   
@<TRIPOS>SUBSTRUCTURE
     1 MOL         1 TEMP              0 ****  ****    0 ROOT
