@<TRIPOS>MOLECULE
MOL
  189   185     1     0     0
SMALL
resp


@<TRIPOS>ATOM
      1 C1          0.2240   -4.1280    5.7830 c3        1 MOL     -0.430250
      2 C2          0.8760   -3.4840    4.5830 c         1 MOL      0.694335
      3 O1          1.0030   -2.2420    4.4890 o         1 MOL     -0.625766
      4 H1          0.2320   -5.2110    5.6620 hc        1 MOL      0.107226
      5 H2          0.7740   -3.8600    6.6840 hc        1 MOL      0.107226
      6 H3         -0.8050   -3.7800    5.8680 hc        1 MOL      0.107226
      7 N1          1.1340   -4.2850    3.5870 n         1 MOL     -0.507136
      8 C3          1.8190   -3.9670    2.3530 c3        1 MOL      0.086048
      9 C4          1.4260   -5.0710    1.2880 c         1 MOL      0.528620
     10 O2          1.3010   -6.2390    1.5350 o         1 MOL     -0.575928
     11 C5          3.3050   -4.1580    2.5410 c3        1 MOL     -0.191167
     12 C6          4.0930   -3.5210    1.3680 c         1 MOL      0.783373
     13 O3          5.3280   -3.6000    1.4150 o         1 MOL     -0.710682
     14 O4          3.5910   -2.8060    0.4240 o         1 MOL     -0.710682
     15 H4          0.8530   -5.2410    3.7270 hn        1 MOL      0.283184
     16 H5          1.5480   -2.9750    1.9970 h1        1 MOL      0.169247
     17 H6          3.7050   -5.1700    2.6060 hc        1 MOL      0.039962
     18 H7          3.6600   -3.6290    3.4340 hc        1 MOL      0.039962
     19 N2          1.4190   -4.6020    0.0130 n         1 MOL     -0.132451
     20 C7          1.2080   -5.4770   -1.2040 c3        1 MOL     -0.117318
     21 C8          2.2820   -5.2670   -2.3000 c         1 MOL      0.601920
     22 O5          2.7260   -6.2270   -2.8460 o         1 MOL     -0.572640
     23 C9         -0.2680   -5.2600   -1.6680 c3        1 MOL      0.281931
     24 C10        -1.2930   -5.5640   -0.5720 c3        1 MOL     -0.052441
     25 C11        -0.6190   -5.9380   -2.9960 c3        1 MOL     -0.355357
     26 C12        -2.6890   -5.0020   -0.8430 c3        1 MOL     -0.194226
     27 H8          1.5060   -3.6260   -0.2070 hn        1 MOL     -0.194858
     28 H9          1.1790   -6.5530   -1.0060 h1        1 MOL      0.070379
     29 H10        -0.3090   -4.1880   -1.8710 hc        1 MOL     -0.000486
     30 H11        -1.0460   -5.0030    0.3260 hc        1 MOL      0.018495
     31 H12        -1.3030   -6.6340   -0.3630 hc        1 MOL      0.018495
     32 H13        -0.7440   -7.0150   -2.8320 hc        1 MOL      0.069234
     33 H14        -1.5460   -5.5340   -3.3910 hc        1 MOL      0.069234
     34 H15         0.2100   -5.8940   -3.7020 hc        1 MOL      0.069234
     35 H16        -3.3160   -5.2690    0.0100 hc        1 MOL      0.058814
     36 H17        -2.5690   -3.9170   -0.9060 hc        1 MOL      0.058814
     37 H18        -3.1100   -5.2890   -1.8130 hc        1 MOL      0.058814
     38 N3          2.7680   -4.0340   -2.4590 n         1 MOL     -0.411704
     39 C13         3.5190   -3.5310   -3.6260 c3        1 MOL      0.040227
     40 C14         5.0030   -3.1790   -3.3940 c         1 MOL      0.346404
     41 O6          5.8520   -3.1710   -4.3230 o         1 MOL     -0.570462
     42 C15         2.8350   -2.2300   -4.1210 c3        1 MOL     -0.283372
     43 C16         2.4470   -1.1440   -3.1680 c         1 MOL      0.710578
     44 O7          3.1550   -0.9200   -2.1640 o         1 MOL     -0.697799
     45 O8          1.2610   -0.7350   -3.1850 o         1 MOL     -0.697799
     46 H19         2.3080   -3.3530   -1.8860 hn        1 MOL      0.439583
     47 H20         3.4210   -4.3280   -4.3730 h1        1 MOL      0.100156
     48 H21         1.9990   -2.5020   -4.7600 hc        1 MOL      0.074259
     49 H22         3.5130   -1.7070   -4.8040 hc        1 MOL      0.074259
     50 N4          5.4290   -2.9090   -2.1620 n         1 MOL     -0.004036
     51 C17         6.8080   -2.6170   -1.7210 c3        1 MOL     -0.277289
     52 C18         7.2420   -1.1870   -1.8270 c         1 MOL      0.551657
     53 O9          8.4270   -0.9370   -1.9030 o         1 MOL     -0.591964
     54 H23         4.7530   -3.0390   -1.4260 hn        1 MOL      0.075528
     55 H24         7.4620   -3.2170   -2.3510 h1        1 MOL      0.122567
     56 H25         7.0070   -3.0180   -0.7180 h1        1 MOL      0.122567
     57 N5          6.2770   -0.2160   -1.7830 n         1 MOL     -0.228463
     58 C19         6.6840    1.1950   -2.1220 c3        1 MOL     -0.038430
     59 C20         7.0980    2.0980   -0.9220 c         1 MOL      0.395720
     60 O10         7.7420    3.1430   -1.1200 o         1 MOL     -0.587999
     61 C21         5.5300    1.8420   -2.9490 c3        1 MOL     -0.216492
     62 C22         4.2150    1.9650   -2.2230 c         1 MOL      0.830928
     63 O11         4.1020    1.5600   -0.9960 o         1 MOL     -0.708152
     64 O12         3.2680    2.5320   -2.8390 o         1 MOL     -0.708152
     65 H26         5.3030   -0.4720   -1.8420 hn        1 MOL      0.189984
     66 H27         7.5770    1.0670   -2.7280 h1        1 MOL      0.113685
     67 H28         5.2870    1.1990   -3.7920 hc        1 MOL      0.058272
     68 H29         5.8250    2.7960   -3.3830 hc        1 MOL      0.058272
     69 N6          6.8410    1.8070    0.2840 n         1 MOL     -0.080939
     70 C23         7.1140    2.5720    1.5150 c3        1 MOL     -0.227172
     71 C24         5.9990    3.5310    2.0280 c         1 MOL      0.584309
     72 O13         6.2460    4.2660    2.9840 o         1 MOL     -0.585585
     73 H30         6.3490    0.9260    0.3910 hn        1 MOL      0.101077
     74 H31         8.0250    3.1440    1.3400 h1        1 MOL      0.099049
     75 H32         7.2810    1.8920    2.3580 h1        1 MOL      0.099049
     76 N7          4.8560    3.5050    1.2840 n         1 MOL     -0.432444
     77 C25         3.6430    4.2100    1.5220 c3        1 MOL      0.115428
     78 C26         2.4640    3.2490    1.8430 c         1 MOL      0.515910
     79 O14         2.5760    2.1110    1.5060 o         1 MOL     -0.547880
     80 C27         3.2680    5.1180    0.3640 c3        1 MOL     -0.052114
     81 C28         4.5000    5.9800   -0.0810 c3        1 MOL     -0.282932
     82 C29         4.2270    7.2330   -0.9450 c         1 MOL      0.718403
     83 N8          5.2060    8.0670   -1.1540 n         1 MOL     -0.802414
     84 O15         3.0790    7.5180   -1.3580 o         1 MOL     -0.596030
     85 H33         4.9200    2.8360    0.5410 hn        1 MOL      0.302092
     86 H34         3.5820    4.8340    2.4050 h1        1 MOL      0.002618
     87 H35         2.4140    5.7200    0.6620 hc        1 MOL      0.054589
     88 H36         2.9770    4.5360   -0.5100 hc        1 MOL      0.054589
     89 H37         5.0760    5.2510   -0.6540 hc        1 MOL      0.097666
     90 H38         4.9190    6.3550    0.8470 hc        1 MOL      0.097666
     91 H39         6.1080    7.9520   -0.7060 hn        1 MOL      0.353190
     92 H40         4.9570    8.8850   -1.6820 hn        1 MOL      0.353190
     93 N9          1.3170    3.7940    2.3010 n         1 MOL     -0.584075
     94 C30         0.1210    2.9660    2.5420 c3        1 MOL      0.127761
     95 C31        -1.0670    3.3240    1.7030 c         1 MOL      0.482550
     96 O16        -1.4490    4.4810    1.5970 o         1 MOL     -0.578277
     97 C32        -0.2330    2.9180    4.1020 c3        1 MOL      0.473608
     98 C33        -0.9360    4.0920    4.7660 c3        1 MOL     -0.338542
     99 C34        -1.0800    1.6700    4.2580 c3        1 MOL     -0.338542
    100 H41         1.3670    4.7240    2.6870 hn        1 MOL      0.329179
    101 H42         0.2970    1.9310    2.2270 h1        1 MOL      0.029194
    102 H43         0.7240    2.7840    4.5920 hc        1 MOL     -0.087122
    103 H44        -1.9200    4.1460    4.3180 hc        1 MOL      0.048391
    104 H45        -0.9970    3.8740    5.8320 hc        1 MOL      0.048391
    105 H46        -0.2630    4.9190    4.5200 hc        1 MOL      0.048391
    106 H47        -2.0300    1.8060    3.7350 hc        1 MOL      0.048391
    107 H48        -0.5690    0.7640    3.9390 hc        1 MOL      0.048391
    108 H49        -1.2680    1.5070    5.3210 hc        1 MOL      0.048391
    109 N10        -1.5150    2.3290    0.9400 n         1 MOL     -0.192115
    110 C35        -2.5960    2.5110    0.0140 c3        1 MOL      0.071767
    111 C36        -4.0080    2.2180    0.6640 c         1 MOL      0.132522
    112 O17        -4.1270    1.7010    1.7640 o         1 MOL     -0.273246
    113 C37        -2.4180    1.6870   -1.2220 c3        1 MOL     -0.174048
    114 C38        -3.4890    1.9130   -2.2730 c         1 MOL      0.590094
    115 N11        -3.6090    3.0690   -2.8400 n         1 MOL     -0.681197
    116 O18        -4.4310    1.1370   -2.3190 o         1 MOL     -0.509973
    117 H50        -0.8820    1.5450    0.8470 hn        1 MOL      0.222055
    118 H51        -2.5370    3.5280   -0.3640 h1        1 MOL      0.052705
    119 H52        -2.4740    0.6400   -0.9160 hc        1 MOL      0.074773
    120 H53        -1.4640    1.8610   -1.7300 hc        1 MOL      0.074773
    121 H54        -2.8710    3.7520   -2.7700 hn        1 MOL      0.334761
    122 H55        -4.4490    3.3130   -3.3430 hn        1 MOL      0.334761
    123 N12        -5.1200    2.7420    0.0420 n         1 MOL     -0.122219
    124 C39        -6.4940    2.4920    0.5550 c3        1 MOL      0.067119
    125 C40        -6.8780    1.0110    0.7590 c         1 MOL      0.312897
    126 O19        -7.5010    0.6430    1.7320 o         1 MOL     -0.496058
    127 C41        -7.4510    3.3080   -0.2700 c3        1 MOL      0.034896
    128 C42        -7.3620    3.2430   -1.7790 ca        1 MOL     -0.103904
    129 C43        -8.0480    2.1810   -2.4710 ca        1 MOL     -0.059724
    130 C44        -6.7480    4.2680   -2.5020 ca        1 MOL     -0.059724
    131 C45        -7.9720    2.1720   -3.8550 ca        1 MOL     -0.356383
    132 C46        -6.6940    4.2410   -3.9220 ca        1 MOL     -0.356383
    133 C47        -7.2490    3.1930   -4.5830 ca        1 MOL      0.459921
    134 O20        -7.1980    3.0960   -5.9130 oh        1 MOL     -0.570865
    135 H56        -5.0020    3.2780   -0.8140 hn        1 MOL      0.089011
    136 H57        -6.5950    2.9320    1.5480 h1        1 MOL      0.036852
    137 H58        -7.2930    4.3460    0.0180 hc        1 MOL      0.016629
    138 H59        -8.4730    3.1060    0.0550 hc        1 MOL      0.016629
    139 H60        -8.5840    1.3690   -1.9960 ha        1 MOL      0.126118
    140 H61        -6.3800    5.1090   -1.9390 ha        1 MOL      0.126118
    141 H62        -8.4740    1.4220   -4.4380 ha        1 MOL      0.149654
    142 H63        -6.3700    5.0450   -4.5720 ha        1 MOL      0.149654
    143 H64        -7.7550    2.3720   -6.2160 ho        1 MOL      0.419430
    144 N13        -6.4220    0.1540   -0.1640 n         1 MOL      0.050484
    145 C48        -6.4920   -1.2740    0.0210 c3        1 MOL     -0.482469
    146 C49        -5.6850   -1.8490    1.1510 c         1 MOL      0.492130
    147 O21        -6.1350   -2.7510    1.8480 o         1 MOL     -0.489063
    148 C50        -6.1280   -2.0410   -1.2270 c3        1 MOL      0.499210
    149 C51        -7.1370   -1.9420   -2.3190 c3        1 MOL     -0.391299
    150 C52        -8.3740   -2.7430   -2.0380 c         1 MOL      0.746020
    151 O22        -8.5660   -3.8420   -2.6640 o         1 MOL     -0.741877
    152 O23        -9.1690   -2.4040   -1.1350 o         1 MOL     -0.741877
    153 H65        -5.7710    0.4600   -0.8730 hn        1 MOL      0.154707
    154 H66        -7.5130   -1.5090    0.3150 h1        1 MOL      0.222748
    155 H67        -5.9640   -3.1000   -1.0780 hc        1 MOL     -0.091205
    156 H68        -5.1930   -1.6260   -1.6130 hc        1 MOL     -0.091205
    157 H69        -6.6210   -2.3070   -3.2050 hc        1 MOL      0.044286
    158 H70        -7.4220   -0.9260   -2.6060 hc        1 MOL      0.044286
    159 N14        -4.5240   -1.2790    1.4920 n         1 MOL     -0.410819
    160 C53        -3.6100   -1.7340    2.5650 c3        1 MOL      0.078198
    161 C54        -4.1090   -1.2900    3.9400 c         1 MOL      0.308730
    162 O24        -4.3350   -2.1150    4.8490 o         1 MOL     -0.542861
    163 C55        -2.2390   -1.1880    2.4070 c3        1 MOL     -0.131657
    164 C56        -1.5580   -1.7460    1.1260 c3        1 MOL      0.017214
    165 C57        -0.1550   -1.1630    0.9310 c         1 MOL      0.550711
    166 O25         0.5370   -1.6080   -0.0260 o         1 MOL     -0.636898
    167 O26         0.3530   -0.3150    1.6400 o         1 MOL     -0.636898
    168 H71        -4.3080   -0.3930    1.0540 hn        1 MOL      0.264483
    169 H72        -3.6520   -2.8270    2.5980 h1        1 MOL      0.083217
    170 H73        -1.6510   -1.4130    3.2980 hc        1 MOL      0.080046
    171 H74        -2.2760   -0.0970    2.3370 hc        1 MOL      0.080046
    172 H75        -2.1660   -1.5220    0.2540 hc        1 MOL      0.004131
    173 H76        -1.5070   -2.8270    1.2530 hc        1 MOL      0.004131
    174 N15        -4.5550   -0.0330    3.9680 n         1 MOL      0.104270
    175 C58        -5.1690    0.5850    5.1550 c3        1 MOL     -0.323278
    176 H77        -5.2760   -0.1650    5.9390 h1        1 MOL      0.098315
    177 H78        -4.5350    1.3960    5.5130 h1        1 MOL      0.098315
    178 H79        -6.1510    0.9790    4.8930 h1        1 MOL      0.098315
    179 H80        -4.4320    0.5820    3.1840 hn        1 MOL      0.042894
    180 Ca1         2.7440   -0.2540    0.2970 Ca        1 MOL      1.767918
    181 O27         2.8220   -0.6130    2.8480 oh        1 MOL     -0.887350
    182 H81         2.0490   -0.7480    3.4020 ho        1 MOL      0.420172
    183 H82         3.5610   -0.6130    3.4670 ho        1 MOL      0.420172
    184 O28         1.2440    1.4410   -1.3640 oh        1 MOL     -0.887350
    185 H83         1.1100    0.6820   -1.9260 ho        1 MOL      0.420172
    186 H84         1.8580    1.9950   -1.8410 ho        1 MOL      0.420172
    187 O29         5.4130   -0.6670    1.1950 oh        1 MOL     -0.887350
    188 H85         5.6150   -1.6030    1.0810 ho        1 MOL      0.420172
    189 H86         6.0060   -0.3820    1.8920 ho        1 MOL      0.420172
@<TRIPOS>BOND
     1    1    2 1   
     2    1    4 1   
     3    1    5 1   
     4    1    6 1   
     5    2    3 2   
     6    2    7 1   
     7    7    8 1   
     8    7   15 1   
     9    8    9 1   
    10    8   11 1   
    11    8   16 1   
    12    9   10 2   
    13    9   19 1   
    14   11   12 1   
    15   11   17 1   
    16   11   18 1   
    17   12   13 1   
    18   12   14 1   
    19   19   20 1   
    20   19   27 1   
    21   20   21 1   
    22   20   23 1   
    23   20   28 1   
    24   21   22 2   
    25   21   38 1   
    26   23   24 1   
    27   23   25 1   
    28   23   29 1   
    29   24   26 1   
    30   24   30 1   
    31   24   31 1   
    32   25   32 1   
    33   25   33 1   
    34   25   34 1   
    35   26   35 1   
    36   26   36 1   
    37   26   37 1   
    38   38   39 1   
    39   38   46 1   
    40   39   40 1   
    41   39   42 1   
    42   39   47 1   
    43   40   41 2   
    44   40   50 1   
    45   42   43 1   
    46   42   48 1   
    47   42   49 1   
    48   43   44 1   
    49   43   45 1   
    50   50   51 1   
    51   50   54 1   
    52   51   52 1   
    53   51   55 1   
    54   51   56 1   
    55   52   53 2   
    56   52   57 1   
    57   57   58 1   
    58   57   65 1   
    59   58   59 1   
    60   58   61 1   
    61   58   66 1   
    62   59   60 2   
    63   59   69 1   
    64   61   62 1   
    65   61   67 1   
    66   61   68 1   
    67   62   63 1   
    68   62   64 1   
    69   69   70 1   
    70   69   73 1   
    71   70   71 1   
    72   70   74 1   
    73   70   75 1   
    74   71   72 2   
    75   71   76 1   
    76   76   77 1   
    77   76   85 1   
    78   77   78 1   
    79   77   80 1   
    80   77   86 1   
    81   78   79 2   
    82   78   93 1   
    83   80   81 1   
    84   80   87 1   
    85   80   88 1   
    86   81   82 1   
    87   81   89 1   
    88   81   90 1   
    89   82   83 1   
    90   82   84 2   
    91   83   91 1   
    92   83   92 1   
    93   93   94 1   
    94   93  100 1   
    95   94   95 1   
    96   94   97 1   
    97   94  101 1   
    98   95   96 2   
    99   95  109 1   
   100   97   98 1   
   101   97   99 1   
   102   97  102 1   
   103   98  103 1   
   104   98  104 1   
   105   98  105 1   
   106   99  106 1   
   107   99  107 1   
   108   99  108 1   
   109  109  110 1   
   110  109  117 1   
   111  110  111 1   
   112  110  113 1   
   113  110  118 1   
   114  111  112 2   
   115  111  123 1   
   116  113  114 1   
   117  113  119 1   
   118  113  120 1   
   119  114  115 1   
   120  114  116 2   
   121  115  121 1   
   122  115  122 1   
   123  123  124 1   
   124  123  135 1   
   125  124  125 1   
   126  124  127 1   
   127  124  136 1   
   128  125  126 2   
   129  125  144 1   
   130  127  128 1   
   131  127  137 1   
   132  127  138 1   
   133  128  129 ar  
   134  128  130 ar  
   135  129  131 ar  
   136  129  139 1   
   137  130  132 ar  
   138  130  140 1   
   139  131  133 ar  
   140  131  141 1   
   141  132  133 ar  
   142  132  142 1   
   143  133  134 1   
   144  134  143 1   
   145  144  145 1   
   146  144  153 1   
   147  145  146 1   
   148  145  148 1   
   149  145  154 1   
   150  146  147 2   
   151  146  159 1   
   152  148  149 1   
   153  148  155 1   
   154  148  156 1   
   155  149  150 1   
   156  149  157 1   
   157  149  158 1   
   158  150  151 1   
   159  150  152 1   
   160  159  160 1   
   161  159  168 1   
   162  160  161 1   
   163  160  163 1   
   164  160  169 1   
   165  161  162 2   
   166  161  174 1   
   167  163  164 1   
   168  163  170 1   
   169  163  171 1   
   170  164  165 1   
   171  164  172 1   
   172  164  173 1   
   173  165  166 1   
   174  165  167 1   
   175  174  175 1   
   176  174  179 1   
   177  175  176 1   
   178  175  177 1   
   179  175  178 1   
   180  181  182 1   
   181  181  183 1   
   182  184  185 1   
   183  184  186 1   
   184  187  188 1   
   185  187  189 1   
@<TRIPOS>SUBSTRUCTURE
     1 MOL         1 TEMP              0 ****  ****    0 ROOT
