@<TRIPOS>MOLECULE
MOL
  172   171     1     0     0
SMALL
resp


@<TRIPOS>ATOM
      1 C1          0.4840    3.8830    5.5780 c3        1 MOL     -0.305774
      2 C2         -0.0990    3.7260    4.1160 c         1 MOL      0.657664
      3 O1          0.6160    3.8540    3.1220 o         1 MOL     -0.539808
      4 H1          1.5730    3.8420    5.5420 hc        1 MOL      0.071605
      5 H2          0.1710    4.8410    5.9940 hc        1 MOL      0.071605
      6 H3          0.1120    3.0740    6.2070 hc        1 MOL      0.071605
      7 N1         -1.3900    3.3920    4.0470 n         1 MOL     -0.587693
      8 C3         -2.1250    3.2950    2.7940 c3        1 MOL      0.182118
      9 C4         -2.2580    4.5800    1.9730 c         1 MOL      0.565969
     10 O2         -2.5120    5.6280    2.5430 o         1 MOL     -0.581505
     11 C5         -3.5230    2.7030    2.9680 c3        1 MOL     -0.225579
     12 C6         -4.1160    2.4950    1.5630 c         1 MOL      0.661155
     13 O3         -5.1810    3.0800    1.2770 o         1 MOL     -0.661440
     14 O4         -3.4680    1.8880    0.7050 o         1 MOL     -0.661440
     15 H4         -1.8220    3.4330    4.9660 hn        1 MOL      0.304536
     16 H5         -1.5470    2.6290    2.1490 h1        1 MOL      0.065734
     17 H6         -4.0900    3.3960    3.5990 hc        1 MOL      0.034423
     18 H7         -3.5360    1.6780    3.3330 hc        1 MOL      0.034423
     19 N2         -2.2430    4.5000    0.6400 n         1 MOL     -0.459089
     20 C7         -2.5260    5.5320   -0.3730 c3        1 MOL      0.224536
     21 C8         -3.2370    5.0010   -1.7080 c         1 MOL      0.441694
     22 O5         -3.1570    5.7290   -2.7020 o         1 MOL     -0.556370
     23 C9         -1.1090    6.1100   -0.7270 c3        1 MOL     -0.265120
     24 H8         -2.0240    3.5920    0.2530 hn        1 MOL      0.348329
     25 H9         -3.1070    6.3450    0.0900 h1        1 MOL      0.034669
     26 H10        -0.6410    5.3050   -1.2890 hc        1 MOL      0.063993
     27 H11        -1.1860    7.0300   -1.3080 hc        1 MOL      0.063993
     28 H12        -0.5020    6.2470    0.1710 hc        1 MOL      0.063993
     29 N3         -3.9530    3.8960   -1.6900 n         1 MOL     -0.343433
     30 C10        -4.7500    3.3740   -2.8310 c3        1 MOL      0.055979
     31 C11        -5.9670    2.6000   -2.3860 c         1 MOL      0.389460
     32 O6         -6.8140    2.3210   -3.2050 o         1 MOL     -0.545152
     33 C12        -3.8250    2.4910   -3.6400 c3        1 MOL      0.064401
     34 C13        -3.0810    1.3620   -2.8420 c         1 MOL      0.588488
     35 O7         -1.8770    1.3880   -2.8790 o         1 MOL     -0.659978
     36 O8         -3.6750    0.5150   -2.1770 o         1 MOL     -0.659978
     37 H13        -3.8710    3.3550   -0.8290 hn        1 MOL      0.171489
     38 H14        -5.0510    4.1860   -3.4890 h1        1 MOL      0.070696
     39 H15        -3.1030    3.1250   -4.1490 hc        1 MOL     -0.013725
     40 H16        -4.4010    2.0820   -4.4610 hc        1 MOL     -0.013725
     41 N4         -6.0740    2.1440   -1.1060 n         1 MOL     -0.149917
     42 C14        -7.3440    1.5080   -0.6780 c3        1 MOL     -0.105203
     43 C15        -7.5430    0.0010   -1.0970 c         1 MOL      0.451027
     44 O9         -8.7100   -0.4750   -1.0590 o         1 MOL     -0.605319
     45 H17        -5.3870    2.3400   -0.3900 hn        1 MOL      0.145744
     46 H18        -8.2270    2.0310   -1.0430 h1        1 MOL      0.082465
     47 H19        -7.4710    1.5930    0.3960 h1        1 MOL      0.082465
     48 N5         -6.4630   -0.6820   -1.4040 n         1 MOL     -0.112011
     49 C16        -6.4730   -2.1440   -1.8160 c3        1 MOL     -0.029581
     50 C17        -6.3590   -3.1320   -0.6010 c         1 MOL      0.390310
     51 O10        -6.0770   -4.3030   -0.7000 o         1 MOL     -0.472065
     52 C18        -5.3260   -2.3670   -2.8470 c3        1 MOL     -0.256497
     53 C19        -3.9180   -2.3960   -2.2970 c         1 MOL      0.460526
     54 N6         -2.9730   -2.5520   -3.1990 n         1 MOL     -0.577081
     55 O11        -3.5320   -2.1800   -1.1690 o         1 MOL     -0.354531
     56 H20        -5.5960   -0.1820   -1.5660 hn        1 MOL      0.098972
     57 H21        -7.4090   -2.3620   -2.3280 h1        1 MOL      0.109988
     58 H22        -5.4240   -1.5880   -3.6190 hc        1 MOL      0.107391
     59 H23        -5.4550   -3.3440   -3.3120 hc        1 MOL      0.107391
     60 H24        -3.2400   -2.7560   -4.1510 hn        1 MOL      0.309449
     61 H25        -2.0260   -2.3690   -2.8850 hn        1 MOL      0.309449
     62 N7         -6.4900   -2.5890    0.6110 n         1 MOL     -0.288440
     63 C20        -6.2070   -3.3330    1.9470 c3        1 MOL     -0.050651
     64 C21        -4.9090   -4.1550    2.0050 c         1 MOL      0.508942
     65 O12        -4.8880   -5.0710    2.8190 o         1 MOL     -0.600563
     66 H26        -6.8550   -1.6560    0.7160 hn        1 MOL      0.217568
     67 H27        -7.0160   -4.0390    2.1260 h1        1 MOL      0.066453
     68 H28        -6.1760   -2.6400    2.7890 h1        1 MOL      0.066453
     69 N8         -3.8580   -3.8680    1.2910 n         1 MOL      0.008014
     70 C22        -2.5050   -4.5180    1.4740 c3        1 MOL     -0.428497
     71 C23        -1.3380   -3.5760    1.5030 c         1 MOL      0.697095
     72 O13        -1.4080   -2.5310    0.8340 o         1 MOL     -0.535349
     73 C24        -2.1910   -5.4160    0.2650 c3        1 MOL      0.704110
     74 C25        -3.0720   -6.6970    0.2630 c3        1 MOL     -0.461273
     75 O14        -2.1430   -4.8930   -1.0120 oh        1 MOL     -0.631436
     76 H29        -3.8510   -3.0630    0.6730 hn        1 MOL      0.029721
     77 H30        -2.4150   -5.0620    2.4160 h1        1 MOL      0.116763
     78 H31        -1.2270   -5.8210    0.5490 h1        1 MOL     -0.083476
     79 H32        -2.1170   -3.9290   -1.0370 ho        1 MOL      0.322308
     80 H33        -3.7470   -6.7860    1.1180 hc        1 MOL      0.100474
     81 H34        -3.7480   -6.7350   -0.5960 hc        1 MOL      0.100474
     82 H35        -2.3830   -7.5390    0.2450 hc        1 MOL      0.100474
     83 N9         -0.1890   -3.9330    2.0770 n         1 MOL     -0.559222
     84 C26         1.0100   -3.1050    2.0090 c3        1 MOL      0.043078
     85 C27         1.6570   -3.1940    0.6240 c         1 MOL      0.455576
     86 O15         1.9840   -4.2460    0.0720 o         1 MOL     -0.559753
     87 C28         2.0730   -3.5480    3.0730 c3        1 MOL      0.006845
     88 C29         1.5220   -3.3510    4.4800 c3        1 MOL      0.114537
     89 C30         3.4110   -2.9220    2.8260 c3        1 MOL      0.065419
     90 C31         1.1130   -1.8670    4.7320 c3        1 MOL     -0.133999
     91 H36        -0.1280   -4.7900    2.5980 hn        1 MOL      0.315732
     92 H37         0.7330   -2.0790    2.2390 h1        1 MOL      0.117380
     93 H38         2.3010   -4.6090    2.9810 hc        1 MOL     -0.008645
     94 H39         2.2490   -3.6790    5.2170 hc        1 MOL     -0.029236
     95 H40         0.6980   -4.0400    4.6560 hc        1 MOL     -0.029236
     96 H41         4.0850   -3.2180    3.6310 hc        1 MOL     -0.021482
     97 H42         3.8430   -3.3420    1.9200 hc        1 MOL     -0.021482
     98 H43         3.3680   -1.8380    2.6970 hc        1 MOL     -0.021482
     99 H44         0.1590   -1.6390    4.2500 hc        1 MOL      0.019964
    100 H45         0.8970   -1.8460    5.7980 hc        1 MOL      0.019964
    101 H46         1.9400   -1.1980    4.5080 hc        1 MOL      0.019964
    102 N10         1.8750   -2.0480   -0.0490 n         1 MOL     -0.196773
    103 C32         2.6190   -1.9390   -1.3040 c3        1 MOL      0.105426
    104 C33         4.0790   -1.5200   -0.9600 c         1 MOL      0.484668
    105 O16         4.3700   -1.0810    0.1700 o         1 MOL     -0.391258
    106 C34         1.8670   -0.9780   -2.3000 c3        1 MOL     -0.160929
    107 C35         0.4830   -1.4250   -2.7030 c         1 MOL      0.683816
    108 O17        -0.5190   -1.2560   -1.9330 o         1 MOL     -0.665039
    109 O18         0.4100   -1.9100   -3.8550 o         1 MOL     -0.665039
    110 H47         1.6810   -1.1550    0.3790 hn        1 MOL      0.061517
    111 H48         2.6790   -2.9280   -1.7840 h1        1 MOL      0.055627
    112 H49         2.5230   -0.9370   -3.1680 hc        1 MOL      0.036848
    113 H50         1.7970    0.0140   -1.8300 hc        1 MOL      0.036848
    114 N11         4.9610   -1.5100   -1.9330 n         1 MOL     -0.654447
    115 C36         6.3250   -1.0950   -1.7170 c3        1 MOL      0.367239
    116 C37         6.5550    0.3350   -1.0860 c         1 MOL      0.290019
    117 O19         7.1040    0.4460   -0.0100 o         1 MOL     -0.475247
    118 C38         7.2180   -1.6390   -2.8750 c3        1 MOL     -0.161594
    119 C39         8.6560   -1.7070   -2.4330 ca        1 MOL      0.142335
    120 C40         9.5220   -0.7060   -2.8760 ca        1 MOL     -0.231483
    121 C41         9.1550   -2.6900   -1.5960 ca        1 MOL     -0.231483
    122 C42        10.8700   -0.6470   -2.4690 ca        1 MOL     -0.027719
    123 C43        10.4180   -2.5680   -1.0020 ca        1 MOL     -0.027719
    124 C44        11.3430   -1.6400   -1.5590 ca        1 MOL     -0.201232
    125 H51         4.6930   -1.7430   -2.8710 hn        1 MOL      0.327180
    126 H52         6.6340   -1.6590   -0.8410 h1        1 MOL      0.028832
    127 H53         7.1330   -0.9140   -3.6810 hc        1 MOL      0.054923
    128 H54         6.9020   -2.5980   -3.2860 hc        1 MOL      0.054923
    129 H55         9.1410    0.1280   -3.4540 ha        1 MOL      0.129037
    130 H56         8.5410   -3.5590   -1.4120 ha        1 MOL      0.129037
    131 H57        11.5050    0.1550   -2.8260 ha        1 MOL      0.093703
    132 H58        10.7250   -3.4240   -0.4080 ha        1 MOL      0.093703
    133 H59        12.3520   -1.7340   -1.1880 ha        1 MOL      0.118357
    134 N12         6.0680    1.4190   -1.6550 n         1 MOL     -0.028369
    135 C45         6.2400    2.7250   -1.1360 c3        1 MOL     -0.091714
    136 C46         5.5780    2.9400    0.2520 c         1 MOL      0.382124
    137 O20         5.9850    3.7120    1.0900 o         1 MOL     -0.480312
    138 C47         5.6140    3.6490   -2.1820 c3        1 MOL     -0.049675
    139 C48         4.8820    2.8050   -3.2700 c3        1 MOL     -0.055742
    140 C49         5.2090    1.4190   -2.8160 c3        1 MOL     -0.044945
    141 H60         7.3160    2.9160   -1.1410 h1        1 MOL      0.088485
    142 H61         5.1120    4.5230   -1.7610 hc        1 MOL      0.041359
    143 H62         6.3540    4.1890   -2.7690 hc        1 MOL      0.041359
    144 H63         3.8300    3.0830   -3.1900 hc        1 MOL      0.053085
    145 H64         5.1210    3.0050   -4.3170 hc        1 MOL      0.053085
    146 H65         4.3010    0.8760   -2.5460 h1        1 MOL      0.020372
    147 H66         5.7380    1.0020   -3.6660 h1        1 MOL      0.020372
    148 N13         4.5390    2.1180    0.5560 n         1 MOL     -0.195983
    149 C50         3.9090    2.1120    1.8630 c3        1 MOL     -0.134785
    150 C51         4.7320    1.4450    2.9670 c         1 MOL      0.411905
    151 O21         4.9720    1.9670    4.0170 o         1 MOL     -0.522086
    152 C52         2.5580    1.4630    1.7800 c3        1 MOL      0.006222
    153 C53         1.6900    2.0690    0.6550 c3        1 MOL     -0.173699
    154 C54         0.3050    1.4500    0.6810 c         1 MOL      0.614073
    155 O22        -0.5790    1.9800   -0.0590 o         1 MOL     -0.732597
    156 O23        -0.0140    0.3660    1.2180 o         1 MOL     -0.732597
    157 H67         4.2060    1.4600   -0.1280 hn        1 MOL      0.229593
    158 H68         3.7760    3.1730    2.0530 h1        1 MOL      0.128572
    159 H69         2.1240    1.4730    2.7740 hc        1 MOL      0.055104
    160 H70         2.8010    0.4100    1.6450 hc        1 MOL      0.055104
    161 H71         2.0850    1.9320   -0.3500 hc        1 MOL      0.085708
    162 H72         1.6730    3.1500    0.7780 hc        1 MOL      0.085708
    163 N14         5.5270    0.3600    2.5640 n         1 MOL      0.024526
    164 C55         6.5300   -0.3300    3.3520 c3        1 MOL     -0.201098
    165 H73         7.5220   -0.0860    2.9710 h1        1 MOL      0.065514
    166 H74         6.4540   -0.0170    4.3930 h1        1 MOL      0.065514
    167 H75         6.3690   -1.4060    3.2840 h1        1 MOL      0.065514
    168 H76         5.3500    0.0560    1.6130 hn        1 MOL      0.044003
    169 Ca1        -2.0960   -0.1060   -0.2980 Ca        1 MOL      1.726040
    170 O24        -3.6900   -0.8360    1.6490 oh        1 MOL     -1.078792
    171 H77        -3.1890   -0.7260    2.4540 ho        1 MOL      0.493084
    172 H78        -4.5790   -0.5990    1.8810 ho        1 MOL      0.493084
@<TRIPOS>BOND
     1    1    2 1   
     2    1    4 1   
     3    1    5 1   
     4    1    6 1   
     5    2    3 2   
     6    2    7 1   
     7    7    8 1   
     8    7   15 1   
     9    8    9 1   
    10    8   11 1   
    11    8   16 1   
    12    9   10 2   
    13    9   19 1   
    14   11   12 1   
    15   11   17 1   
    16   11   18 1   
    17   12   13 1   
    18   12   14 1   
    19   19   20 1   
    20   19   24 1   
    21   20   21 1   
    22   20   23 1   
    23   20   25 1   
    24   21   22 2   
    25   21   29 1   
    26   23   26 1   
    27   23   27 1   
    28   23   28 1   
    29   29   30 1   
    30   29   37 1   
    31   30   31 1   
    32   30   33 1   
    33   30   38 1   
    34   31   32 2   
    35   31   41 1   
    36   33   34 1   
    37   33   39 1   
    38   33   40 1   
    39   34   35 1   
    40   34   36 1   
    41   41   42 1   
    42   41   45 1   
    43   42   43 1   
    44   42   46 1   
    45   42   47 1   
    46   43   44 2   
    47   43   48 1   
    48   48   49 1   
    49   48   56 1   
    50   49   50 1   
    51   49   52 1   
    52   49   57 1   
    53   50   51 2   
    54   50   62 1   
    55   52   53 1   
    56   52   58 1   
    57   52   59 1   
    58   53   54 1   
    59   53   55 2   
    60   54   60 1   
    61   54   61 1   
    62   62   63 1   
    63   62   66 1   
    64   63   64 1   
    65   63   67 1   
    66   63   68 1   
    67   64   65 2   
    68   64   69 1   
    69   69   70 1   
    70   69   76 1   
    71   70   71 1   
    72   70   73 1   
    73   70   77 1   
    74   71   72 2   
    75   71   83 1   
    76   73   74 1   
    77   73   75 1   
    78   73   78 1   
    79   74   80 1   
    80   74   81 1   
    81   74   82 1   
    82   75   79 1   
    83   83   84 1   
    84   83   91 1   
    85   84   85 1   
    86   84   87 1   
    87   84   92 1   
    88   85   86 2   
    89   85  102 1   
    90   87   88 1   
    91   87   89 1   
    92   87   93 1   
    93   88   90 1   
    94   88   94 1   
    95   88   95 1   
    96   89   96 1   
    97   89   97 1   
    98   89   98 1   
    99   90   99 1   
   100   90  100 1   
   101   90  101 1   
   102  102  103 1   
   103  102  110 1   
   104  103  104 1   
   105  103  106 1   
   106  103  111 1   
   107  104  105 2   
   108  104  114 1   
   109  106  107 1   
   110  106  112 1   
   111  106  113 1   
   112  107  108 1   
   113  107  109 1   
   114  114  115 1   
   115  114  125 1   
   116  115  116 1   
   117  115  118 1   
   118  115  126 1   
   119  116  117 2   
   120  116  134 1   
   121  118  119 1   
   122  118  127 1   
   123  118  128 1   
   124  119  120 ar  
   125  119  121 ar  
   126  120  122 ar  
   127  120  129 1   
   128  121  123 ar  
   129  121  130 1   
   130  122  124 ar  
   131  122  131 1   
   132  123  124 ar  
   133  123  132 1   
   134  124  133 1   
   135  134  135 1   
   136  134  140 1   
   137  135  136 1   
   138  135  138 1   
   139  135  141 1   
   140  136  137 2   
   141  136  148 1   
   142  138  139 1   
   143  138  142 1   
   144  138  143 1   
   145  139  140 1   
   146  139  144 1   
   147  139  145 1   
   148  140  146 1   
   149  140  147 1   
   150  148  149 1   
   151  148  157 1   
   152  149  150 1   
   153  149  152 1   
   154  149  158 1   
   155  150  151 2   
   156  150  163 1   
   157  152  153 1   
   158  152  159 1   
   159  152  160 1   
   160  153  154 1   
   161  153  161 1   
   162  153  162 1   
   163  154  155 1   
   164  154  156 1   
   165  163  164 1   
   166  163  168 1   
   167  164  165 1   
   168  164  166 1   
   169  164  167 1   
   170  170  171 1   
   171  170  172 1   
@<TRIPOS>SUBSTRUCTURE
     1 MOL         1 TEMP              0 ****  ****    0 ROOT
