@<TRIPOS>MOLECULE
MOL
  179   176     1     0     0
SMALL
resp


@<TRIPOS>ATOM
      1 C1         -1.6840   -2.7380    6.7410 c3        1 MOL     -0.375687
      2 C2         -1.7300   -2.3050    5.2680 c         1 MOL      0.788154
      3 O1         -2.7300   -1.9110    4.7510 o         1 MOL     -0.573341
      4 H1         -2.2400   -3.6670    6.8630 hc        1 MOL      0.094511
      5 H2         -0.6480   -2.8940    7.0430 hc        1 MOL      0.094511
      6 H3         -2.1310   -1.9630    7.3630 hc        1 MOL      0.094511
      7 N1         -0.5700   -2.3000    4.6060 n         1 MOL     -0.619143
      8 C3         -0.3780   -2.1190    3.1310 c3        1 MOL     -0.140922
      9 C4         -0.6940   -3.4570    2.4460 c         1 MOL      0.623939
     10 O2         -0.2470   -4.5500    2.8230 o         1 MOL     -0.540690
     11 C5          1.0910   -1.7310    2.8280 c3        1 MOL      0.071504
     12 C6          1.3120   -1.3710    1.3630 c         1 MOL      0.523047
     13 O3          2.4670   -0.9940    1.0510 o         1 MOL     -0.698020
     14 O4          0.5040   -1.5920    0.3770 o         1 MOL     -0.698020
     15 H4          0.2410   -2.7280    5.0240 hn        1 MOL      0.320210
     16 H5         -0.9460   -1.2660    2.7670 h1        1 MOL      0.078621
     17 H6          1.7890   -2.5350    3.0540 hc        1 MOL      0.034308
     18 H7          1.5360   -0.9900    3.4960 hc        1 MOL      0.034308
     19 N2         -1.4030   -3.3530    1.3020 n         1 MOL     -0.348148
     20 C7         -1.9910   -4.4410    0.4900 c3        1 MOL     -0.138384
     21 C8         -0.9390   -5.4440   -0.0600 c         1 MOL      0.560276
     22 O5         -1.2380   -6.6360   -0.1160 o         1 MOL     -0.572771
     23 C9         -2.9400   -3.9220   -0.6240 c3        1 MOL     -0.018226
     24 C10        -3.7820   -5.1550   -1.1000 c3        1 MOL     -0.044557
     25 C11        -5.1440   -4.6340   -1.8000 c3        1 MOL      0.075784
     26 C12        -6.1700   -5.6810   -2.1240 c3        1 MOL      0.055964
     27 N3         -5.5270   -6.8700   -2.7040 n4        1 MOL     -0.349814
     28 H8         -1.6300   -2.4410    0.9250 hn        1 MOL      0.276389
     29 H9         -2.5750   -4.9970    1.2080 h1        1 MOL      0.124359
     30 H10        -2.4970   -3.4390   -1.4890 hc        1 MOL      0.056528
     31 H11        -3.6210   -3.1620   -0.2400 hc        1 MOL      0.056528
     32 H12        -4.1200   -5.8220   -0.3040 hc        1 MOL      0.010057
     33 H13        -3.1410   -5.7640   -1.7410 hc        1 MOL      0.010057
     34 H14        -4.8190   -4.2450   -2.7710 hc        1 MOL      0.008913
     35 H15        -5.5680   -3.7780   -1.2890 hc        1 MOL      0.008913
     36 H16        -6.9660   -5.3140   -2.7590 hx        1 MOL      0.070108
     37 H17        -6.6420   -5.9870   -1.1860 hx        1 MOL      0.070108
     38 H18        -6.2680   -7.5390   -2.8520 hn        1 MOL      0.322103
     39 H19        -4.9940   -6.7210   -3.5470 hn        1 MOL      0.322103
     40 H20        -4.8980   -7.2090   -1.9960 hn        1 MOL      0.322103
     41 N4          0.2680   -4.9310   -0.4500 n         1 MOL     -0.266865
     42 C13         1.4120   -5.6610   -0.9730 c3        1 MOL      0.021635
     43 C14         2.8150   -5.4410   -0.2060 c         1 MOL      0.325231
     44 O6          3.9360   -5.9810   -0.5620 o         1 MOL     -0.505264
     45 C15         1.6950   -5.4610   -2.4850 c3        1 MOL     -0.247309
     46 C16         1.9210   -3.9700   -2.8450 c         1 MOL      0.775566
     47 O7          2.0130   -3.0180   -2.0190 o         1 MOL     -0.713439
     48 O8          2.0860   -3.6890   -4.0680 o         1 MOL     -0.713439
     49 H21         0.3590   -3.9330   -0.5260 hn        1 MOL      0.202996
     50 H22         1.1380   -6.7010   -0.7890 h1        1 MOL      0.101697
     51 H23         0.8750   -5.7200   -3.1600 hc        1 MOL      0.075525
     52 H24         2.5880   -6.0190   -2.7340 hc        1 MOL      0.075525
     53 N5          2.8110   -4.5970    0.8630 n         1 MOL     -0.052871
     54 C17         3.9440   -4.4700    1.8070 c3        1 MOL     -0.187596
     55 C18         5.1000   -3.6820    1.0520 c         1 MOL      0.471285
     56 O9          6.1990   -3.7280    1.6380 o         1 MOL     -0.559133
     57 H25         1.9100   -4.2190    1.1060 hn        1 MOL      0.066786
     58 H26         4.3110   -5.4390    2.1480 h1        1 MOL      0.119931
     59 H27         3.4840   -3.8600    2.5980 h1        1 MOL      0.119931
     60 N6          4.9610   -2.9320   -0.0350 n         1 MOL     -0.142576
     61 C19         6.1070   -2.3930   -0.7560 c3        1 MOL     -0.149961
     62 C20         6.7050   -1.1040   -0.2030 c         1 MOL      0.442693
     63 O10         7.8070   -0.8680   -0.6470 o         1 MOL     -0.526891
     64 C21         5.7060   -2.3370   -2.2570 c3        1 MOL     -0.056141
     65 C22         5.0470   -0.9650   -2.6380 c         1 MOL      0.609874
     66 N7          5.5120   -0.4040   -3.7300 n         1 MOL     -0.781647
     67 O11         4.1510   -0.4870   -2.0050 o         1 MOL     -0.624203
     68 H28         4.0570   -2.7800   -0.4490 hn        1 MOL      0.181381
     69 H29         6.8210   -3.2110   -0.7180 h1        1 MOL      0.137818
     70 H30         5.1270   -3.2310   -2.4780 hc        1 MOL      0.065160
     71 H31         6.6030   -2.4370   -2.8750 hc        1 MOL      0.065160
     72 H32         6.2890   -0.7410   -4.2910 hn        1 MOL      0.380364
     73 H33         5.2560    0.5650   -3.7950 hn        1 MOL      0.380364
     74 N8          5.9340   -0.3130    0.6110 n         1 MOL     -0.023806
     75 C23         6.5570    0.7750    1.3870 c3        1 MOL     -0.356338
     76 C24         5.7060    2.0550    1.4430 c         1 MOL      0.601923
     77 O12         6.1530    2.9870    2.1740 o         1 MOL     -0.562041
     78 H34         5.0800   -0.7210    0.9550 hn        1 MOL      0.175678
     79 H35         7.5420    1.0690    1.0280 h1        1 MOL      0.148568
     80 H36         6.5580    0.2730    2.3530 h1        1 MOL      0.148568
     81 N9          4.5390    2.1210    0.8170 n         1 MOL     -0.317105
     82 C25         3.6420    3.2740    0.8790 c3        1 MOL      0.247916
     83 C26         2.2120    2.6600    0.8960 c         1 MOL      0.217005
     84 O13         1.9860    1.6730    0.1590 o         1 MOL     -0.416983
     85 C27         3.8160    4.0910   -0.4310 c3        1 MOL     -0.063770
     86 C28         4.9570    4.9850   -0.5680 ca        1 MOL      0.004700
     87 C29         6.2230    4.5000   -1.0670 ca        1 MOL     -0.154341
     88 C30         4.8340    6.2890   -0.1570 ca        1 MOL     -0.154341
     89 C31         7.3420    5.3800   -0.9300 ca        1 MOL     -0.226770
     90 C32         5.8860    7.1680   -0.2420 ca        1 MOL     -0.226770
     91 C33         7.1580    6.7150   -0.5640 ca        1 MOL      0.308611
     92 O14         8.2830    7.5840   -0.5610 oh        1 MOL     -0.467663
     93 H37         4.2010    1.3680    0.2330 hn        1 MOL      0.122388
     94 H38         3.8670    3.8650    1.7590 h1        1 MOL      0.026787
     95 H39         2.8730    4.6150   -0.5780 hc        1 MOL      0.032924
     96 H40         4.0170    3.4030   -1.2540 hc        1 MOL      0.032924
     97 H41         6.3700    3.4930   -1.4240 ha        1 MOL      0.125168
     98 H42         3.9050    6.5760    0.2970 ha        1 MOL      0.125168
     99 H43         8.3280    5.0310   -1.1760 ha        1 MOL      0.148712
    100 H44         5.7610    8.1740    0.1190 ha        1 MOL      0.148712
    101 H45         7.9580    8.4320   -0.2390 ho        1 MOL      0.329551
    102 N10         1.2590    3.2630    1.5650 n         1 MOL     -0.225047
    103 C34        -0.1250    2.8580    1.5850 c3        1 MOL     -0.063535
    104 C35        -0.9240    3.8870    0.7780 c         1 MOL      0.535383
    105 O15        -0.9290    5.0690    1.1790 o         1 MOL     -0.553519
    106 C36        -0.6370    2.5500    3.0390 c3        1 MOL      0.080011
    107 C37         0.4390    1.8440    3.9440 c3        1 MOL      0.030562
    108 C38        -1.8620    1.5800    2.8000 c3        1 MOL     -0.202509
    109 C39        -0.1170    1.3710    5.2810 c3        1 MOL     -0.173966
    110 H46         1.5630    4.0350    2.1490 hn        1 MOL      0.248207
    111 H47        -0.1650    1.9640    0.9580 h1        1 MOL      0.036608
    112 H48        -0.9900    3.4350    3.5650 hc        1 MOL      0.019355
    113 H49         1.3510    2.4280    3.9770 hc        1 MOL      0.008679
    114 H50         0.7050    0.9880    3.3330 hc        1 MOL      0.008679
    115 H51        -2.7160    2.0540    2.3130 hc        1 MOL      0.068220
    116 H52        -1.5460    0.7520    2.1770 hc        1 MOL      0.068220
    117 H53        -2.2910    1.1640    3.7150 hc        1 MOL      0.068220
    118 H54         0.7440    1.1000    5.9020 hc        1 MOL      0.046309
    119 H55        -0.6110    2.1840    5.8030 hc        1 MOL      0.046309
    120 H56        -0.7990    0.5390    5.1700 hc        1 MOL      0.046309
    121 N11        -1.5960    3.4530   -0.3260 n         1 MOL     -0.421297
    122 C40        -2.6030    4.2890   -1.0450 c3        1 MOL      0.162315
    123 C41        -3.9690    4.1570   -0.4010 c         1 MOL      0.492216
    124 O16        -4.3160    3.2220    0.3430 o         1 MOL     -0.428130
    125 C42        -2.5650    4.0840   -2.5280 c3        1 MOL     -0.260890
    126 O17        -3.4580    3.0700   -2.9630 oh        1 MOL     -0.448698
    127 H57        -1.4670    2.5160   -0.6810 hn        1 MOL      0.301295
    128 H58        -2.3050    5.2950   -0.7440 h1        1 MOL      0.030777
    129 H59        -1.5490    3.7910   -2.7680 h1        1 MOL      0.137898
    130 H60        -2.7260    5.0110   -3.0800 h1        1 MOL      0.137898
    131 H61        -3.2900    2.9040   -3.8980 ho        1 MOL      0.384913
    132 N12        -4.8090    5.1800   -0.6610 n         1 MOL     -0.459407
    133 C43        -6.1230    5.2870   -0.0770 c3        1 MOL      0.187023
    134 C44        -7.0660    4.1020   -0.4150 c         1 MOL      0.383614
    135 O18        -7.9000    3.7350    0.3440 o         1 MOL     -0.500308
    136 C45        -6.6770    6.5990   -0.6230 c3        1 MOL     -0.283562
    137 H62        -4.5940    5.8520   -1.3830 hn        1 MOL      0.281538
    138 H63        -5.9940    5.4360    0.9930 h1        1 MOL      0.078873
    139 H64        -7.6490    6.7060   -0.1610 hc        1 MOL      0.082731
    140 H65        -5.9920    7.3770   -0.3140 hc        1 MOL      0.082731
    141 H66        -6.7840    6.5960   -1.7090 hc        1 MOL      0.082731
    142 N13        -6.8380    3.4580   -1.5540 n         1 MOL     -0.238546
    143 C46        -7.5260    2.2360   -1.9920 c3        1 MOL      0.097507
    144 C47        -7.0820    0.9350   -1.2030 c         1 MOL      0.405579
    145 O19        -7.8740    0.1630   -0.6470 o         1 MOL     -0.479992
    146 C48        -7.3950    2.0130   -3.5150 c3        1 MOL     -0.259995
    147 H67        -6.2240    3.9030   -2.2320 hn        1 MOL      0.194199
    148 H68        -8.5990    2.3190   -1.8670 h1        1 MOL      0.077120
    149 H69        -7.6900    0.9720   -3.6760 hc        1 MOL      0.071366
    150 H70        -8.0640    2.6780   -4.0620 hc        1 MOL      0.071366
    151 H71        -6.3640    2.2900   -3.7170 hc        1 MOL      0.071366
    152 N14        -5.7120    0.7530   -1.0820 n         1 MOL     -0.275482
    153 C49        -5.0820   -0.2480   -0.2460 c3        1 MOL     -0.328518
    154 C50        -5.5170   -0.1660    1.1890 c         1 MOL      0.547980
    155 O20        -5.7840   -1.2280    1.8040 o         1 MOL     -0.551855
    156 C51        -3.5530   -0.1440   -0.3950 c3        1 MOL     -0.115119
    157 C52        -3.0570   -0.2400   -1.8220 c3        1 MOL      0.302907
    158 C53        -1.5490   -0.2120   -1.7960 c         1 MOL      0.656586
    159 O21        -0.9940   -1.2270   -2.3070 o         1 MOL     -0.736400
    160 O22        -0.9170    0.8220   -1.4660 o         1 MOL     -0.736400
    161 H72        -5.1000    1.4490   -1.4660 hn        1 MOL      0.209629
    162 H73        -5.3830   -1.2210   -0.6330 h1        1 MOL      0.190101
    163 H74        -3.1460   -0.9750    0.1950 hc        1 MOL      0.033791
    164 H75        -3.2300    0.8070    0.0110 hc        1 MOL      0.033791
    165 H76        -3.4380    0.5310   -2.4940 hc        1 MOL     -0.103377
    166 H77        -3.3750   -1.1810   -2.2550 hc        1 MOL     -0.103377
    167 N15        -5.5800    1.0000    1.8340 n         1 MOL     -0.082854
    168 C54        -6.1240    1.0280    3.2240 c3        1 MOL     -0.305780
    169 H78        -5.5770    0.3150    3.8420 h1        1 MOL      0.118411
    170 H79        -6.0100    2.0290    3.6390 h1        1 MOL      0.118411
    171 H80        -7.1800    0.7580    3.2070 h1        1 MOL      0.118411
    172 H81        -5.1210    1.8330    1.4900 hn        1 MOL      0.158779
    173 Ca1         1.5170   -0.4190   -1.5520 Ca        1 MOL      1.742167
    174 O23         1.6830   -0.9880   -4.0540 oh        1 MOL     -0.835122
    175 H82         1.3940   -0.9060   -4.9620 ho        1 MOL      0.398639
    176 H83         1.8540   -1.9230   -3.9400 ho        1 MOL      0.398639
    177 O24         2.2900    1.6820   -2.8680 oh        1 MOL     -0.835122
    178 H84         1.8580    2.5120   -3.0360 ho        1 MOL      0.398639
    179 H85         3.1860    1.8130   -3.1780 ho        1 MOL      0.398639
@<TRIPOS>BOND
     1    1    2 1   
     2    1    4 1   
     3    1    5 1   
     4    1    6 1   
     5    2    3 2   
     6    2    7 1   
     7    7    8 1   
     8    7   15 1   
     9    8    9 1   
    10    8   11 1   
    11    8   16 1   
    12    9   10 2   
    13    9   19 1   
    14   11   12 1   
    15   11   17 1   
    16   11   18 1   
    17   12   13 1   
    18   12   14 1   
    19   19   20 1   
    20   19   28 1   
    21   20   21 1   
    22   20   23 1   
    23   20   29 1   
    24   21   22 2   
    25   21   41 1   
    26   23   24 1   
    27   23   30 1   
    28   23   31 1   
    29   24   25 1   
    30   24   32 1   
    31   24   33 1   
    32   25   26 1   
    33   25   34 1   
    34   25   35 1   
    35   26   27 1   
    36   26   36 1   
    37   26   37 1   
    38   27   38 1   
    39   27   39 1   
    40   27   40 1   
    41   41   42 1   
    42   41   49 1   
    43   42   43 1   
    44   42   45 1   
    45   42   50 1   
    46   43   44 2   
    47   43   53 1   
    48   45   46 1   
    49   45   51 1   
    50   45   52 1   
    51   46   47 1   
    52   46   48 1   
    53   53   54 1   
    54   53   57 1   
    55   54   55 1   
    56   54   58 1   
    57   54   59 1   
    58   55   56 2   
    59   55   60 1   
    60   60   61 1   
    61   60   68 1   
    62   61   62 1   
    63   61   64 1   
    64   61   69 1   
    65   62   63 2   
    66   62   74 1   
    67   64   65 1   
    68   64   70 1   
    69   64   71 1   
    70   65   66 1   
    71   65   67 2   
    72   66   72 1   
    73   66   73 1   
    74   74   75 1   
    75   74   78 1   
    76   75   76 1   
    77   75   79 1   
    78   75   80 1   
    79   76   77 2   
    80   76   81 1   
    81   81   82 1   
    82   81   93 1   
    83   82   83 1   
    84   82   85 1   
    85   82   94 1   
    86   83   84 2   
    87   83  102 1   
    88   85   86 1   
    89   85   95 1   
    90   85   96 1   
    91   86   87 ar  
    92   86   88 ar  
    93   87   89 ar  
    94   87   97 1   
    95   88   90 ar  
    96   88   98 1   
    97   89   91 ar  
    98   89   99 1   
    99   90   91 ar  
   100   90  100 1   
   101   91   92 1   
   102   92  101 1   
   103  102  103 1   
   104  102  110 1   
   105  103  104 1   
   106  103  106 1   
   107  103  111 1   
   108  104  105 2   
   109  104  121 1   
   110  106  107 1   
   111  106  108 1   
   112  106  112 1   
   113  107  109 1   
   114  107  113 1   
   115  107  114 1   
   116  108  115 1   
   117  108  116 1   
   118  108  117 1   
   119  109  118 1   
   120  109  119 1   
   121  109  120 1   
   122  121  122 1   
   123  121  127 1   
   124  122  123 1   
   125  122  125 1   
   126  122  128 1   
   127  123  124 2   
   128  123  132 1   
   129  125  126 1   
   130  125  129 1   
   131  125  130 1   
   132  126  131 1   
   133  132  133 1   
   134  132  137 1   
   135  133  134 1   
   136  133  136 1   
   137  133  138 1   
   138  134  135 2   
   139  134  142 1   
   140  136  139 1   
   141  136  140 1   
   142  136  141 1   
   143  142  143 1   
   144  142  147 1   
   145  143  144 1   
   146  143  146 1   
   147  143  148 1   
   148  144  145 2   
   149  144  152 1   
   150  146  149 1   
   151  146  150 1   
   152  146  151 1   
   153  152  153 1   
   154  152  161 1   
   155  153  154 1   
   156  153  156 1   
   157  153  162 1   
   158  154  155 2   
   159  154  167 1   
   160  156  157 1   
   161  156  163 1   
   162  156  164 1   
   163  157  158 1   
   164  157  165 1   
   165  157  166 1   
   166  158  159 1   
   167  158  160 1   
   168  167  168 1   
   169  167  172 1   
   170  168  169 1   
   171  168  170 1   
   172  168  171 1   
   173  174  175 1   
   174  174  176 1   
   175  177  178 1   
   176  177  179 1   
@<TRIPOS>SUBSTRUCTURE
     1 MOL         1 TEMP              0 ****  ****    0 ROOT
