@<TRIPOS>MOLECULE
MOL
  175   173     1     0     0
SMALL
resp


@<TRIPOS>ATOM
      1 C1          0.4870    4.3390    5.2180 c3        1 MOL     -0.413459
      2 C2         -0.1270    4.1830    3.8510 c         1 MOL      0.733012
      3 O1          0.5580    4.4080    2.8140 o         1 MOL     -0.539591
      4 H1         -0.2880    4.6140    5.9340 hc        1 MOL      0.100580
      5 H2          0.9430    3.3970    5.5210 hc        1 MOL      0.100580
      6 H3          1.2480    5.1190    5.1890 hc        1 MOL      0.100580
      7 N1         -1.4920    3.9650    3.8140 n         1 MOL     -0.671277
      8 C3         -2.1180    3.6870    2.5430 c3        1 MOL      0.163698
      9 C4         -2.3460    4.9260    1.6330 c         1 MOL      0.693841
     10 O2         -2.4380    6.1080    1.9680 o         1 MOL     -0.576261
     11 C5         -3.4420    2.9830    2.8020 c3        1 MOL     -0.476589
     12 C6         -4.1530    2.5300    1.5610 c         1 MOL      0.721188
     13 O3         -5.3810    2.2910    1.5890 o         1 MOL     -0.663088
     14 O4         -3.4890    2.1470    0.6050 o         1 MOL     -0.663088
     15 H4         -1.9650    3.8650    4.6910 hn        1 MOL      0.345353
     16 H5         -1.4360    3.0360    1.9980 h1        1 MOL      0.070021
     17 H6         -4.1210    3.6710    3.2980 hc        1 MOL      0.122318
     18 H7         -3.2950    2.0530    3.3520 hc        1 MOL      0.122318
     19 N2         -2.2760    4.6520    0.2840 n         1 MOL     -0.719919
     20 C7         -2.7840    5.5660   -0.6700 c3        1 MOL      0.525243
     21 C8         -3.6970    5.0420   -1.7850 c         1 MOL      0.467926
     22 O5         -3.9100    5.8300   -2.7220 o         1 MOL     -0.579469
     23 C9         -1.6290    6.4310   -1.2870 c3        1 MOL     -0.294089
     24 H8         -1.9790    3.7310   -0.0100 hn        1 MOL      0.318499
     25 H9         -3.4690    6.2380   -0.1610 h1        1 MOL     -0.055268
     26 H10        -1.1280    5.8270   -2.0440 hc        1 MOL      0.058918
     27 H11        -2.1140    7.1890   -1.9070 hc        1 MOL      0.058918
     28 H12        -0.9260    6.9650   -0.6660 hc        1 MOL      0.058918
     29 N3         -4.1710    3.8000   -1.7440 n         1 MOL     -0.539840
     30 C10        -4.9370    3.2350   -2.8290 c3        1 MOL      0.207142
     31 C11        -6.0250    2.2470   -2.4270 c         1 MOL      0.302136
     32 O6         -6.7140    1.7930   -3.3090 o         1 MOL     -0.530378
     33 C12        -3.9270    2.4400   -3.6740 c3        1 MOL     -0.315627
     34 C13        -3.1180    1.3840   -2.8160 c         1 MOL      0.706447
     35 O7         -3.7700    0.6500   -2.0620 o         1 MOL     -0.700412
     36 O8         -1.8800    1.2780   -2.7700 o         1 MOL     -0.700412
     37 H13        -3.8240    3.1930   -1.0100 hn        1 MOL      0.350966
     38 H14        -5.3490    4.0090   -3.4760 h1        1 MOL      0.083653
     39 H15        -3.1770    3.1700   -3.9910 hc        1 MOL      0.078009
     40 H16        -4.4730    1.9820   -4.5050 hc        1 MOL      0.078009
     41 N4         -6.3370    1.9700   -1.1640 n         1 MOL     -0.153674
     42 C14        -7.4800    1.2030   -0.7360 c3        1 MOL     -0.071337
     43 C15        -7.4450   -0.2790   -1.2750 c         1 MOL      0.406741
     44 O9         -8.5620   -0.8460   -1.2750 o         1 MOL     -0.595327
     45 H17        -5.6720    2.3080   -0.4720 hn        1 MOL      0.082076
     46 H18        -8.4360    1.6960   -0.9290 h1        1 MOL      0.082948
     47 H19        -7.4510    1.1760    0.3480 h1        1 MOL      0.082948
     48 N5         -6.2890   -0.8810   -1.5740 n         1 MOL     -0.264474
     49 C16        -6.2150   -2.2530   -2.1280 c3        1 MOL      0.035199
     50 C17        -6.1660   -3.3080   -1.0220 c         1 MOL      0.415656
     51 O10        -6.0300   -4.4400   -1.4300 o         1 MOL     -0.508809
     52 C18        -4.9950   -2.3990   -2.9820 c3        1 MOL     -0.256080
     53 C19        -3.6370   -2.3350   -2.3640 c         1 MOL      0.777449
     54 N6         -2.5070   -2.4560   -3.0640 n         1 MOL     -0.742548
     55 O11        -3.4210   -2.3140   -1.2010 o         1 MOL     -0.614315
     56 H20        -5.4540   -0.3190   -1.6910 hn        1 MOL      0.349496
     57 H21        -7.1300   -2.5350   -2.6490 h1        1 MOL      0.115750
     58 H22        -4.8990   -1.5940   -3.7120 hc        1 MOL      0.067282
     59 H23        -5.0080   -3.3670   -3.4820 hc        1 MOL      0.067282
     60 H24        -2.4700   -2.3680   -4.0760 hn        1 MOL      0.325648
     61 H25        -1.6090   -2.3520   -2.6120 hn        1 MOL      0.325648
     62 N7         -6.3700   -3.0640    0.2830 n         1 MOL     -0.290641
     63 C20        -6.3670   -4.0440    1.3850 c3        1 MOL     -0.116272
     64 C21        -5.0120   -4.4970    1.8590 c         1 MOL      0.598902
     65 O12        -4.9820   -5.1730    2.8690 o         1 MOL     -0.607134
     66 H26        -6.5590   -2.1220    0.5890 hn        1 MOL      0.250057
     67 H27        -6.8160   -4.9440    0.9790 h1        1 MOL      0.083805
     68 H28        -6.9990   -3.7430    2.2150 h1        1 MOL      0.083805
     69 N8         -3.8730   -4.0770    1.2680 n         1 MOL     -0.222827
     70 C22        -2.4700   -4.5920    1.6040 c3        1 MOL     -0.296194
     71 C23        -1.4000   -3.4420    1.7070 c         1 MOL      0.731812
     72 O13        -1.5980   -2.3940    1.1680 o         1 MOL     -0.656834
     73 C24        -1.9460   -5.3910    0.3910 c3        1 MOL      0.596523
     74 C25        -2.4840   -6.8160    0.5070 c3        1 MOL     -0.431776
     75 O14        -2.3380   -4.8750   -0.7840 oh        1 MOL     -0.576584
     76 H29        -3.9100   -3.5570    0.4040 hn        1 MOL      0.152800
     77 H30        -2.4870   -5.2410    2.4810 h1        1 MOL      0.120633
     78 H31        -0.8550   -5.3900    0.4000 h1        1 MOL     -0.043518
     79 H32        -2.1680   -3.9250   -0.7500 ho        1 MOL      0.348247
     80 H33        -2.9820   -7.1690   -0.3880 hc        1 MOL      0.092750
     81 H34        -1.6040   -7.4570    0.5040 hc        1 MOL      0.092750
     82 H35        -3.0900   -7.0030    1.3960 hc        1 MOL      0.092750
     83 N9         -0.2980   -3.7270    2.4180 n         1 MOL     -0.689012
     84 C26         0.8510   -2.8560    2.1850 c3        1 MOL      0.205568
     85 C27         1.6620   -3.2410    0.9750 c         1 MOL      0.398725
     86 O15         2.1060   -4.3870    0.7870 o         1 MOL     -0.581458
     87 C28         1.7640   -2.7380    3.4570 c3        1 MOL      0.091857
     88 C29         0.9890   -1.9860    4.5910 c3        1 MOL     -0.013044
     89 C30         3.1540   -2.1030    3.1050 c3        1 MOL     -0.337323
     90 C31         1.9590   -1.6730    5.7310 c3        1 MOL     -0.100630
     91 H36        -0.1980   -4.5760    2.9570 hn        1 MOL      0.333067
     92 H37         0.5730   -1.8200    1.9990 h1        1 MOL      0.075653
     93 H38         1.8510   -3.7820    3.7570 hc        1 MOL      0.001610
     94 H39         0.1940   -2.5940    5.0330 hc        1 MOL      0.008351
     95 H40         0.5820   -1.0560    4.1760 hc        1 MOL      0.008351
     96 H41         3.6430   -2.2570    4.0620 hc        1 MOL      0.068614
     97 H42         3.6420   -2.4910    2.2080 hc        1 MOL      0.068614
     98 H43         3.0620   -1.0190    2.9980 hc        1 MOL      0.068614
     99 H44         2.5390   -0.8280    5.3610 hc        1 MOL      0.023015
    100 H45         1.5010   -1.2900    6.6460 hc        1 MOL      0.023015
    101 H46         2.6990   -2.4210    6.0450 hc        1 MOL      0.023015
    102 N10         1.8400   -2.2560    0.1210 n         1 MOL     -0.072123
    103 C32         2.7490   -2.2130   -1.0490 c3        1 MOL      0.024514
    104 C33         4.1160   -1.5820   -0.8420 c         1 MOL      0.475094
    105 O16         4.3300   -0.9610    0.1820 o         1 MOL     -0.314184
    106 C34         2.0270   -1.4250   -2.1650 c3        1 MOL     -0.337174
    107 C35         0.5460   -1.8110   -2.3670 c         1 MOL      0.793552
    108 O17        -0.2920   -1.3170   -1.5930 o         1 MOL     -0.682275
    109 O18         0.2500   -2.6050   -3.2880 o         1 MOL     -0.682275
    110 H47         1.5640   -1.3280    0.4040 hn        1 MOL      0.058892
    111 H48         3.0610   -3.1830   -1.4210 h1        1 MOL      0.062951
    112 H49         2.5690   -1.5420   -3.1090 hc        1 MOL      0.070512
    113 H50         2.0060   -0.4040   -1.8020 hc        1 MOL      0.070512
    114 N11         5.0400   -1.5970   -1.8050 n         1 MOL     -0.696838
    115 C36         6.4420   -1.4050   -1.4650 c3        1 MOL      0.409665
    116 C37         6.7070    0.0600   -1.0850 c         1 MOL      0.304686
    117 O19         7.1810    0.3950   -0.0230 o         1 MOL     -0.490334
    118 C38         7.3490   -1.8760   -2.6230 c3        1 MOL     -0.246260
    119 C39         8.8730   -1.7350   -2.3700 ca        1 MOL      0.103996
    120 C40         9.6570   -0.6460   -2.8120 ca        1 MOL     -0.176987
    121 C41         9.4220   -2.7290   -1.5410 ca        1 MOL     -0.176987
    122 C42        11.0120   -0.5900   -2.5080 ca        1 MOL     -0.101447
    123 C43        10.7730   -2.6350   -1.2150 ca        1 MOL     -0.101447
    124 C44        11.5570   -1.5990   -1.6940 ca        1 MOL     -0.100020
    125 H51         4.8000   -2.1910   -2.5890 hn        1 MOL      0.362489
    126 H52         6.6770   -1.9860   -0.5730 h1        1 MOL      0.020083
    127 H53         7.0480   -1.3470   -3.5240 hc        1 MOL      0.066657
    128 H54         7.1830   -2.9330   -2.8290 hc        1 MOL      0.066657
    129 H55         9.2490    0.1140   -3.4580 ha        1 MOL      0.130497
    130 H56         8.7400   -3.3880   -1.0160 ha        1 MOL      0.130497
    131 H57        11.5830    0.2520   -2.8790 ha        1 MOL      0.110536
    132 H58        11.1390   -3.3560   -0.5090 ha        1 MOL      0.110536
    133 H59        12.6120   -1.5750   -1.4460 ha        1 MOL      0.090831
    134 N12         6.1410    1.0860   -1.8520 n         1 MOL     -0.016005
    135 C45         6.3900    2.5170   -1.4170 c3        1 MOL     -0.120251
    136 C46         5.6820    2.8920   -0.1530 c         1 MOL      0.383430
    137 O20         5.9510    3.9090    0.4560 o         1 MOL     -0.542831
    138 C47         5.9810    3.4160   -2.5310 c3        1 MOL      0.015429
    139 C48         6.0750    2.5050   -3.7370 c3        1 MOL     -0.139850
    140 C49         5.5200    1.1890   -3.1660 c3        1 MOL     -0.122082
    141 H60         7.4460    2.7120   -1.2160 h1        1 MOL      0.116766
    142 H61         4.9530    3.7370   -2.3570 hc        1 MOL      0.051052
    143 H62         6.5710    4.3220   -2.6200 hc        1 MOL      0.051052
    144 H63         5.4530    2.9620   -4.5050 hc        1 MOL      0.050991
    145 H64         7.1100    2.3330   -4.0350 hc        1 MOL      0.050991
    146 H65         4.4420    1.3220   -3.0220 h1        1 MOL      0.091360
    147 H66         5.7310    0.3220   -3.7820 h1        1 MOL      0.091360
    148 N13         4.7710    2.0910    0.3790 n         1 MOL     -0.117367
    149 C50         4.1300    2.2000    1.7250 c3        1 MOL      0.037935
    150 C51         4.7960    1.4150    2.8550 c         1 MOL      0.462052
    151 O21         4.9420    1.9700    3.9270 o         1 MOL     -0.591744
    152 C52         2.6830    1.7170    1.6890 c3        1 MOL     -0.021732
    153 C53         1.8380    1.9840    0.3800 c3        1 MOL     -0.065962
    154 C54         0.3950    1.4840    0.5360 c         1 MOL      0.556283
    155 O22         0.1380    0.3700    1.0730 o         1 MOL     -0.630023
    156 O23        -0.5130    2.0810   -0.0840 o         1 MOL     -0.630023
    157 H67         4.6530    1.2080   -0.1040 hn        1 MOL      0.064314
    158 H68         4.0470    3.2640    1.9600 h1        1 MOL      0.068386
    159 H69         2.1850    2.1010    2.5850 hc        1 MOL      0.020353
    160 H70         2.7560    0.6420    1.8360 hc        1 MOL      0.020353
    161 H71         2.3230    1.5740   -0.5110 hc        1 MOL      0.051442
    162 H72         1.9080    3.0290    0.0910 hc        1 MOL      0.051442
    163 N14         5.3330    0.2470    2.6560 n         1 MOL     -0.026856
    164 C55         6.3270   -0.4210    3.4690 c3        1 MOL     -0.121143
    165 H73         6.9920   -1.0010    2.8270 h1        1 MOL      0.050959
    166 H74         6.9090    0.3200    4.0160 h1        1 MOL      0.050959
    167 H75         5.8320   -1.0880    4.1750 h1        1 MOL      0.050959
    168 H76         5.1790   -0.1800    1.7490 hn        1 MOL      0.093144
    169 Ca1        -2.1670   -0.0620   -0.1120 Ca        1 MOL      1.724025
    170 O24        -4.6400   -0.4630    1.0390 oh        1 MOL     -0.811984
    171 H77        -4.6990    0.4840    0.9480 ho        1 MOL      0.385819
    172 H78        -5.2220   -0.6670    1.7810 ho        1 MOL      0.385819
    173 O25        -1.8030    0.2800    2.6670 oh        1 MOL     -0.811984
    174 H79        -1.8630    0.4810    3.5960 ho        1 MOL      0.385819
    175 H80        -0.8760    0.3350    2.4670 ho        1 MOL      0.385819
@<TRIPOS>BOND
     1    1    2 1   
     2    1    4 1   
     3    1    5 1   
     4    1    6 1   
     5    2    3 2   
     6    2    7 1   
     7    7    8 1   
     8    7   15 1   
     9    8    9 1   
    10    8   11 1   
    11    8   16 1   
    12    9   10 2   
    13    9   19 1   
    14   11   12 1   
    15   11   17 1   
    16   11   18 1   
    17   12   13 1   
    18   12   14 1   
    19   19   20 1   
    20   19   24 1   
    21   20   21 1   
    22   20   23 1   
    23   20   25 1   
    24   21   22 2   
    25   21   29 1   
    26   23   26 1   
    27   23   27 1   
    28   23   28 1   
    29   29   30 1   
    30   29   37 1   
    31   30   31 1   
    32   30   33 1   
    33   30   38 1   
    34   31   32 2   
    35   31   41 1   
    36   33   34 1   
    37   33   39 1   
    38   33   40 1   
    39   34   35 1   
    40   34   36 1   
    41   41   42 1   
    42   41   45 1   
    43   42   43 1   
    44   42   46 1   
    45   42   47 1   
    46   43   44 2   
    47   43   48 1   
    48   48   49 1   
    49   48   56 1   
    50   49   50 1   
    51   49   52 1   
    52   49   57 1   
    53   50   51 2   
    54   50   62 1   
    55   52   53 1   
    56   52   58 1   
    57   52   59 1   
    58   53   54 1   
    59   53   55 2   
    60   54   60 1   
    61   54   61 1   
    62   62   63 1   
    63   62   66 1   
    64   63   64 1   
    65   63   67 1   
    66   63   68 1   
    67   64   65 2   
    68   64   69 1   
    69   69   70 1   
    70   69   76 1   
    71   70   71 1   
    72   70   73 1   
    73   70   77 1   
    74   71   72 2   
    75   71   83 1   
    76   73   74 1   
    77   73   75 1   
    78   73   78 1   
    79   74   80 1   
    80   74   81 1   
    81   74   82 1   
    82   75   79 1   
    83   83   84 1   
    84   83   91 1   
    85   84   85 1   
    86   84   87 1   
    87   84   92 1   
    88   85   86 2   
    89   85  102 1   
    90   87   88 1   
    91   87   89 1   
    92   87   93 1   
    93   88   90 1   
    94   88   94 1   
    95   88   95 1   
    96   89   96 1   
    97   89   97 1   
    98   89   98 1   
    99   90   99 1   
   100   90  100 1   
   101   90  101 1   
   102  102  103 1   
   103  102  110 1   
   104  103  104 1   
   105  103  106 1   
   106  103  111 1   
   107  104  105 2   
   108  104  114 1   
   109  106  107 1   
   110  106  112 1   
   111  106  113 1   
   112  107  108 1   
   113  107  109 1   
   114  114  115 1   
   115  114  125 1   
   116  115  116 1   
   117  115  118 1   
   118  115  126 1   
   119  116  117 2   
   120  116  134 1   
   121  118  119 1   
   122  118  127 1   
   123  118  128 1   
   124  119  120 ar  
   125  119  121 ar  
   126  120  122 ar  
   127  120  129 1   
   128  121  123 ar  
   129  121  130 1   
   130  122  124 ar  
   131  122  131 1   
   132  123  124 ar  
   133  123  132 1   
   134  124  133 1   
   135  134  135 1   
   136  134  140 1   
   137  135  136 1   
   138  135  138 1   
   139  135  141 1   
   140  136  137 2   
   141  136  148 1   
   142  138  139 1   
   143  138  142 1   
   144  138  143 1   
   145  139  140 1   
   146  139  144 1   
   147  139  145 1   
   148  140  146 1   
   149  140  147 1   
   150  148  149 1   
   151  148  157 1   
   152  149  150 1   
   153  149  152 1   
   154  149  158 1   
   155  150  151 2   
   156  150  163 1   
   157  152  153 1   
   158  152  159 1   
   159  152  160 1   
   160  153  154 1   
   161  153  161 1   
   162  153  162 1   
   163  154  155 1   
   164  154  156 1   
   165  163  164 1   
   166  163  168 1   
   167  164  165 1   
   168  164  166 1   
   169  164  167 1   
   170  170  171 1   
   171  170  172 1   
   172  173  174 1   
   173  173  175 1   
@<TRIPOS>SUBSTRUCTURE
     1 MOL         1 TEMP              0 ****  ****    0 ROOT
