@<TRIPOS>MOLECULE
MOL
  179   176     1     0     0
SMALL
resp


@<TRIPOS>ATOM
      1 C1          0.4770    4.8720    4.7730 c3        1 MOL     -0.350915
      2 C2          0.2110    4.1460    3.4510 c         1 MOL      0.514955
      3 O1          0.9910    4.1310    2.5350 o         1 MOL     -0.535768
      4 H1          0.8710    4.1640    5.5020 hc        1 MOL      0.092569
      5 H2          1.2040    5.6680    4.6110 hc        1 MOL      0.092569
      6 H3         -0.4530    5.2990    5.1470 hc        1 MOL      0.092569
      7 N1         -0.9710    3.5740    3.3800 n         1 MOL     -0.441389
      8 C3         -1.5620    2.8960    2.1820 c3        1 MOL      0.068398
      9 C4         -2.3540    3.8450    1.3180 c         1 MOL      0.353514
     10 O2         -3.5760    3.9430    1.4190 o         1 MOL     -0.442534
     11 C5         -2.3900    1.6760    2.5610 c3        1 MOL     -0.077864
     12 C6         -3.0210    0.9640    1.3450 c         1 MOL      0.725984
     13 O3         -2.4390    1.0200    0.2200 o         1 MOL     -0.714724
     14 O4         -4.0340    0.2490    1.5790 o         1 MOL     -0.714724
     15 H4         -1.4830    3.5660    4.2450 hn        1 MOL      0.300780
     16 H5         -0.7560    2.4310    1.6200 h1        1 MOL      0.085509
     17 H6         -3.1770    1.9030    3.2750 hc        1 MOL      0.025761
     18 H7         -1.7250    1.0400    3.1320 hc        1 MOL      0.025761
     19 N2         -1.6250    4.6740    0.5380 n         1 MOL     -0.237480
     20 C7         -2.2010    5.8100   -0.0590 c3        1 MOL      0.033794
     21 C8         -3.0950    5.5810   -1.2250 c         1 MOL      0.416062
     22 O5         -3.8300    6.4370   -1.6510 o         1 MOL     -0.568438
     23 C9         -1.2210    6.8340   -0.4790 c3        1 MOL     -0.344568
     24 C10        -0.3350    7.2180    0.7180 c3        1 MOL      0.052384
     25 C11         0.3690    8.5830    0.3950 c3        1 MOL     -0.023980
     26 C12         1.2660    8.9430    1.5750 c3        1 MOL     -0.149976
     27 N3          0.5110    9.5040    2.7200 n4        1 MOL     -0.315609
     28 H8         -0.6370    4.4570    0.4480 hn        1 MOL      0.286991
     29 H9         -2.8050    6.3060    0.7070 h1        1 MOL      0.070900
     30 H10        -1.7450    7.6960   -0.9030 hc        1 MOL      0.137432
     31 H11        -0.6580    6.2720   -1.2300 hc        1 MOL      0.137432
     32 H12         0.4750    6.4910    0.8020 hc        1 MOL      0.033984
     33 H13        -0.9300    7.2520    1.6300 hc        1 MOL      0.033984
     34 H14        -0.3030    9.4160    0.1780 hc        1 MOL      0.060029
     35 H15         0.9450    8.4880   -0.5210 hc        1 MOL      0.060029
     36 H16         1.8750    9.7770    1.2280 hx        1 MOL      0.144606
     37 H17         1.8830    8.1230    1.9440 hx        1 MOL      0.144606
     38 H18         1.0550    9.9160    3.4650 hn        1 MOL      0.314590
     39 H19        -0.0510   10.2840    2.4100 hn        1 MOL      0.314590
     40 H20        -0.0600    8.8080    3.1850 hn        1 MOL      0.314590
     41 N4         -3.1470    4.4210   -1.7930 n         1 MOL     -0.140268
     42 C13        -4.1560    3.9910   -2.7680 c3        1 MOL     -0.023137
     43 C14        -5.3430    3.3310   -2.0430 c         1 MOL      0.403257
     44 O6         -6.4440    3.1420   -2.5960 o         1 MOL     -0.554827
     45 C15        -3.4790    3.0570   -3.7710 c3        1 MOL     -0.142243
     46 C16        -2.8130    1.8530   -3.1650 c         1 MOL      0.758291
     47 O7         -3.2170    0.7330   -3.2380 o         1 MOL     -0.744786
     48 O8         -1.7960    2.1030   -2.4780 o         1 MOL     -0.744786
     49 H21        -2.4420    3.7290   -1.5920 hn        1 MOL      0.144195
     50 H22        -4.4260    4.8120   -3.4350 h1        1 MOL      0.107076
     51 H23        -2.8160    3.5180   -4.4900 hc        1 MOL      0.038816
     52 H24        -4.3430    2.7000   -4.3400 hc        1 MOL      0.038816
     53 N5         -5.0570    2.9280   -0.8400 n         1 MOL      0.167114
     54 C17        -6.0640    2.3630    0.0360 c3        1 MOL     -0.280187
     55 C18        -6.5150    0.9680   -0.1910 c         1 MOL      0.552839
     56 O9         -7.4940    0.4760    0.4340 o         1 MOL     -0.567301
     57 H25        -4.1220    3.1010   -0.5000 hn        1 MOL     -0.142942
     58 H26        -6.9090    3.0540    0.0700 h1        1 MOL      0.125168
     59 H27        -5.6400    2.3290    1.0420 h1        1 MOL      0.125168
     60 N6         -5.7860    0.2760   -1.1100 n         1 MOL     -0.362167
     61 C19        -6.3290   -1.0890   -1.4490 c3        1 MOL      0.012605
     62 C20        -6.2180   -2.1910   -0.3820 c         1 MOL      0.333027
     63 O10        -6.7610   -3.2370   -0.5930 o         1 MOL     -0.512251
     64 C21        -5.6600   -1.5420   -2.7770 c3        1 MOL     -0.248649
     65 C22        -4.2120   -2.0100   -2.6370 c         1 MOL      0.712976
     66 N7         -3.6340   -2.6050   -3.6370 n         1 MOL     -0.757838
     67 O11        -3.5980   -1.8700   -1.6260 o         1 MOL     -0.564731
     68 H28        -4.8800    0.5840   -1.4280 hn        1 MOL      0.252069
     69 H29        -7.3760   -1.0340   -1.7310 h1        1 MOL      0.130942
     70 H30        -5.6500   -0.6480   -3.3880 hc        1 MOL      0.085885
     71 H31        -6.3110   -2.2680   -3.2800 hc        1 MOL      0.085885
     72 H32        -4.2170   -2.7080   -4.4630 hn        1 MOL      0.337081
     73 H33        -2.9230   -3.3040   -3.4790 hn        1 MOL      0.337081
     74 N8         -5.5920   -1.9340    0.7840 n         1 MOL     -0.027732
     75 C23        -5.5100   -2.8290    1.9080 c3        1 MOL     -0.431578
     76 C24        -4.1470   -3.5910    2.1390 c         1 MOL      0.632667
     77 O12        -4.0390   -4.3640    3.1070 o         1 MOL     -0.575340
     78 H34        -5.1440   -1.0440    0.8650 hn        1 MOL      0.300076
     79 H35        -6.2010   -3.6540    1.6910 h1        1 MOL      0.161398
     80 H36        -5.8500   -2.3100    2.8020 h1        1 MOL      0.161398
     81 N9         -3.1210   -3.3640    1.3370 n         1 MOL     -0.193013
     82 C25        -1.8330   -4.0250    1.4230 c3        1 MOL      0.027381
     83 C26        -0.7030   -2.9770    1.2410 c         1 MOL      0.661916
     84 O13        -0.9140   -1.9000    0.6610 o         1 MOL     -0.687452
     85 C27        -1.8030   -5.2080    0.4710 c3        1 MOL     -0.030454
     86 C28        -2.8530   -6.2380    0.6230 ca        1 MOL     -0.053869
     87 C29        -3.9210   -6.2490   -0.2260 ca        1 MOL     -0.081178
     88 C30        -2.9060   -7.0310    1.7500 ca        1 MOL     -0.081178
     89 C31        -5.0140   -7.1090    0.1290 ca        1 MOL     -0.344321
     90 C32        -3.8900   -7.9480    2.0630 ca        1 MOL     -0.344321
     91 C33        -5.0410   -7.9680    1.2470 ca        1 MOL      0.454169
     92 O14        -6.1030   -8.7330    1.5440 oh        1 MOL     -0.519382
     93 H37        -3.1350   -2.5270    0.7750 hn        1 MOL      0.107853
     94 H38        -1.7390   -4.3240    2.4680 h1        1 MOL      0.034943
     95 H39        -0.8020   -5.6220    0.5450 hc        1 MOL      0.011518
     96 H40        -1.9220   -4.8490   -0.5460 hc        1 MOL      0.011518
     97 H41        -4.0490   -5.6330   -1.1010 ha        1 MOL      0.123924
     98 H42        -2.1090   -6.9130    2.4760 ha        1 MOL      0.123924
     99 H43        -5.8050   -7.1310   -0.6130 ha        1 MOL      0.156393
    100 H44        -3.8650   -8.4970    2.9920 ha        1 MOL      0.156393
    101 H45        -5.9510   -9.2100    2.3610 ho        1 MOL      0.383318
    102 N10         0.5600   -3.2250    1.6780 n         1 MOL     -0.600540
    103 C34         1.7760   -2.3760    1.5310 c3        1 MOL     -0.029817
    104 C35         3.0080   -3.1590    1.3080 c         1 MOL      0.559919
    105 O15         3.4930   -3.9960    2.0940 o         1 MOL     -0.524140
    106 C36         2.0180   -1.4630    2.7490 c3        1 MOL     -0.058840
    107 C37         0.8460   -0.4490    2.9900 c3        1 MOL      0.085154
    108 C38         3.3340   -0.5960    2.6020 c3        1 MOL     -0.039126
    109 C39         1.0410    0.5750    4.1060 c3        1 MOL     -0.185717
    110 H46         0.6500   -3.9940    2.3380 hn        1 MOL      0.331338
    111 H47         1.5620   -1.7320    0.6690 h1        1 MOL      0.207610
    112 H48         2.0340   -2.1210    3.6190 hc        1 MOL      0.034814
    113 H49        -0.0980   -0.9030    3.2600 hc        1 MOL      0.021265
    114 H50         0.6530   -0.0360    1.9920 hc        1 MOL      0.021265
    115 H51         4.1650   -1.1410    2.1630 hc        1 MOL      0.025689
    116 H52         3.1330    0.1930    1.8710 hc        1 MOL      0.025689
    117 H53         3.6420   -0.0930    3.5190 hc        1 MOL      0.025689
    118 H54         1.6910    1.3850    3.7810 hc        1 MOL      0.048424
    119 H55         0.0320    0.9830    4.2380 hc        1 MOL      0.048424
    120 H56         1.4120    0.1820    5.0490 hc        1 MOL      0.048424
    121 N11         3.7040   -2.8380    0.1550 n         1 MOL     -0.409120
    122 C40         4.9970   -3.5250   -0.2750 c3        1 MOL      0.086213
    123 C41         6.2040   -2.8230    0.2240 c         1 MOL      0.434138
    124 O16         6.1520   -1.7830    0.7970 o         1 MOL     -0.389948
    125 C42         4.9900   -3.5860   -1.8040 c3        1 MOL     -0.090627
    126 O17         5.2240   -2.3570   -2.3780 oh        1 MOL     -0.299369
    127 H57         3.3930   -2.0140   -0.3440 hn        1 MOL      0.129283
    128 H58         5.0220   -4.5400    0.1460 h1        1 MOL      0.094515
    129 H59         4.1450   -4.1210   -2.2350 h1        1 MOL      0.064460
    130 H60         5.7560   -4.2460   -2.2090 h1        1 MOL      0.064460
    131 H61         4.8970   -2.4500   -3.2770 ho        1 MOL      0.370355
    132 N12         7.3790   -3.4040    0.0370 n         1 MOL     -0.433208
    133 C43         8.7540   -2.8680    0.3780 c3        1 MOL      0.213197
    134 C44         9.1430   -1.7560   -0.6910 c         1 MOL      0.339676
    135 O18        10.1220   -1.0570   -0.5340 o         1 MOL     -0.495035
    136 C45         9.8470   -3.9480    0.2990 c3        1 MOL     -0.253430
    137 H62         7.3710   -4.3350   -0.3790 hn        1 MOL      0.256894
    138 H63         8.8140   -2.3680    1.3490 h1        1 MOL      0.076564
    139 H64        10.1470   -4.0080   -0.7380 hc        1 MOL      0.080581
    140 H65        10.6680   -3.6280    0.9340 hc        1 MOL      0.080581
    141 H66         9.5490   -4.8850    0.7790 hc        1 MOL      0.080581
    142 N13         8.3350   -1.5500   -1.7440 n         1 MOL     -0.199130
    143 C46         8.3850   -0.3710   -2.5500 c3        1 MOL      0.201469
    144 C47         7.5660    0.8490   -1.9610 c         1 MOL      0.278745
    145 O19         8.0690    1.9830   -1.8380 o         1 MOL     -0.480519
    146 C48         7.8210   -0.7380   -3.9040 c3        1 MOL     -0.257467
    147 H67         7.6600   -2.2980   -1.8170 hn        1 MOL      0.135312
    148 H68         9.4170   -0.0530   -2.6950 h1        1 MOL      0.076190
    149 H69         7.9840    0.0770   -4.6060 hc        1 MOL      0.055652
    150 H70         8.5520   -1.4850   -4.2060 hc        1 MOL      0.055652
    151 H71         6.7910   -1.0960   -3.9260 hc        1 MOL      0.055652
    152 N14         6.3500    0.5660   -1.4230 n         1 MOL      0.119251
    153 C49         5.5160    1.5750   -0.8170 c3        1 MOL     -0.270430
    154 C50         6.1070    2.1550    0.4900 c         1 MOL      0.518350
    155 O20         6.2560    3.3420    0.6350 o         1 MOL     -0.535744
    156 C51         4.0900    0.9290   -0.5840 c3        1 MOL      0.225119
    157 C52         3.0300    1.0750   -1.7330 c3        1 MOL     -0.070247
    158 C53         1.7070    0.5020   -1.3410 c         1 MOL      0.644002
    159 O21         0.9180    1.2810   -0.7270 o         1 MOL     -0.707383
    160 O22         1.3850   -0.7070   -1.4930 o         1 MOL     -0.707383
    161 H72         6.1150   -0.4100   -1.4550 hn        1 MOL     -0.165032
    162 H73         5.3680    2.3890   -1.5240 h1        1 MOL      0.109965
    163 H74         3.5820    1.3560    0.2830 hc        1 MOL      0.005371
    164 H75         4.2770   -0.1240   -0.3480 hc        1 MOL      0.005371
    165 H76         3.4340    0.5250   -2.5870 hc        1 MOL     -0.005284
    166 H77         2.8750    2.1270   -1.9610 hc        1 MOL     -0.005284
    167 N15         6.4130    1.2620    1.4150 n         1 MOL     -0.096135
    168 C54         7.0590    1.6230    2.6710 c3        1 MOL     -0.218474
    169 H78         7.1300    0.7410    3.3080 h1        1 MOL      0.093803
    170 H79         8.0580    2.0070    2.4680 h1        1 MOL      0.093803
    171 H80         6.4700    2.3880    3.1760 h1        1 MOL      0.093803
    172 H81         6.0460    0.3390    1.2490 hn        1 MOL      0.065818
    173 Ca1        -1.2110   -0.2860   -1.4320 Ca        1 MOL      1.740280
    174 O23        -0.6960   -2.6350   -2.7340 oh        1 MOL     -0.793737
    175 H82        -1.1420   -3.3800   -3.1180 ho        1 MOL      0.392135
    176 H83         0.1690   -2.9680   -2.4750 ho        1 MOL      0.392135
    177 O24        -0.3330   -0.0880   -3.9860 oh        1 MOL     -0.793737
    178 H84         0.1040   -0.6720   -4.6020 ho        1 MOL      0.392135
    179 H85        -0.9630    0.3980   -4.5270 ho        1 MOL      0.392135
@<TRIPOS>BOND
     1    1    2 1   
     2    1    4 1   
     3    1    5 1   
     4    1    6 1   
     5    2    3 2   
     6    2    7 1   
     7    7    8 1   
     8    7   15 1   
     9    8    9 1   
    10    8   11 1   
    11    8   16 1   
    12    9   10 2   
    13    9   19 1   
    14   11   12 1   
    15   11   17 1   
    16   11   18 1   
    17   12   13 1   
    18   12   14 1   
    19   19   20 1   
    20   19   28 1   
    21   20   21 1   
    22   20   23 1   
    23   20   29 1   
    24   21   22 2   
    25   21   41 1   
    26   23   24 1   
    27   23   30 1   
    28   23   31 1   
    29   24   25 1   
    30   24   32 1   
    31   24   33 1   
    32   25   26 1   
    33   25   34 1   
    34   25   35 1   
    35   26   27 1   
    36   26   36 1   
    37   26   37 1   
    38   27   38 1   
    39   27   39 1   
    40   27   40 1   
    41   41   42 1   
    42   41   49 1   
    43   42   43 1   
    44   42   45 1   
    45   42   50 1   
    46   43   44 2   
    47   43   53 1   
    48   45   46 1   
    49   45   51 1   
    50   45   52 1   
    51   46   47 1   
    52   46   48 1   
    53   53   54 1   
    54   53   57 1   
    55   54   55 1   
    56   54   58 1   
    57   54   59 1   
    58   55   56 2   
    59   55   60 1   
    60   60   61 1   
    61   60   68 1   
    62   61   62 1   
    63   61   64 1   
    64   61   69 1   
    65   62   63 2   
    66   62   74 1   
    67   64   65 1   
    68   64   70 1   
    69   64   71 1   
    70   65   66 1   
    71   65   67 2   
    72   66   72 1   
    73   66   73 1   
    74   74   75 1   
    75   74   78 1   
    76   75   76 1   
    77   75   79 1   
    78   75   80 1   
    79   76   77 2   
    80   76   81 1   
    81   81   82 1   
    82   81   93 1   
    83   82   83 1   
    84   82   85 1   
    85   82   94 1   
    86   83   84 2   
    87   83  102 1   
    88   85   86 1   
    89   85   95 1   
    90   85   96 1   
    91   86   87 ar  
    92   86   88 ar  
    93   87   89 ar  
    94   87   97 1   
    95   88   90 ar  
    96   88   98 1   
    97   89   91 ar  
    98   89   99 1   
    99   90   91 ar  
   100   90  100 1   
   101   91   92 1   
   102   92  101 1   
   103  102  103 1   
   104  102  110 1   
   105  103  104 1   
   106  103  106 1   
   107  103  111 1   
   108  104  105 2   
   109  104  121 1   
   110  106  107 1   
   111  106  108 1   
   112  106  112 1   
   113  107  109 1   
   114  107  113 1   
   115  107  114 1   
   116  108  115 1   
   117  108  116 1   
   118  108  117 1   
   119  109  118 1   
   120  109  119 1   
   121  109  120 1   
   122  121  122 1   
   123  121  127 1   
   124  122  123 1   
   125  122  125 1   
   126  122  128 1   
   127  123  124 2   
   128  123  132 1   
   129  125  126 1   
   130  125  129 1   
   131  125  130 1   
   132  126  131 1   
   133  132  133 1   
   134  132  137 1   
   135  133  134 1   
   136  133  136 1   
   137  133  138 1   
   138  134  135 2   
   139  134  142 1   
   140  136  139 1   
   141  136  140 1   
   142  136  141 1   
   143  142  143 1   
   144  142  147 1   
   145  143  144 1   
   146  143  146 1   
   147  143  148 1   
   148  144  145 2   
   149  144  152 1   
   150  146  149 1   
   151  146  150 1   
   152  146  151 1   
   153  152  153 1   
   154  152  161 1   
   155  153  154 1   
   156  153  156 1   
   157  153  162 1   
   158  154  155 2   
   159  154  167 1   
   160  156  157 1   
   161  156  163 1   
   162  156  164 1   
   163  157  158 1   
   164  157  165 1   
   165  157  166 1   
   166  158  159 1   
   167  158  160 1   
   168  167  168 1   
   169  167  172 1   
   170  168  169 1   
   171  168  170 1   
   172  168  171 1   
   173  174  175 1   
   174  174  176 1   
   175  177  178 1   
   176  177  179 1   
@<TRIPOS>SUBSTRUCTURE
     1 MOL         1 TEMP              0 ****  ****    0 ROOT
