@<TRIPOS>MOLECULE
MOL
  183   181     1     0     0
SMALL
resp


@<TRIPOS>ATOM
      1 C1         -0.2310    1.7130    6.2110 c3        1 MOL     -0.364469
      2 C2         -0.7320    1.8160    4.8120 c         1 MOL      0.819293
      3 O1         -0.0890    2.3730    3.9400 o         1 MOL     -0.623067
      4 H1         -1.0180    1.3090    6.8490 hc        1 MOL      0.079501
      5 H2          0.6350    1.0520    6.2390 hc        1 MOL      0.079501
      6 H3          0.0550    2.7020    6.5690 hc        1 MOL      0.079501
      7 N1         -1.8960    1.2410    4.4530 n         1 MOL     -0.656354
      8 C3         -2.5390    1.3250    3.1510 c3        1 MOL      0.151048
      9 C4         -2.9160    2.7830    2.6840 c         1 MOL      0.590721
     10 O2         -3.4770    3.5350    3.4600 o         1 MOL     -0.601689
     11 C5         -3.7820    0.3850    3.1020 c3        1 MOL     -0.277205
     12 C6         -4.5920    0.3760    1.7250 c         1 MOL      0.637671
     13 O3         -5.6450   -0.2660    1.7010 o         1 MOL     -0.603591
     14 O4         -4.0950    0.8240    0.6560 o         1 MOL     -0.603591
     15 H4         -2.2960    0.7340    5.2240 hn        1 MOL      0.311626
     16 H5         -1.7910    0.9650    2.4450 h1        1 MOL      0.088958
     17 H6         -4.4160    0.6540    3.9470 hc        1 MOL      0.065778
     18 H7         -3.4440   -0.6340    3.2970 hc        1 MOL      0.065778
     19 N2         -2.3940    3.2530    1.5170 n         1 MOL     -0.180267
     20 C7         -2.5660    4.6060    1.0060 c3        1 MOL     -0.271278
     21 C8         -3.7200    4.8460    0.0390 c         1 MOL      0.694209
     22 O5         -4.0780    5.9840   -0.2270 o         1 MOL     -0.585354
     23 C9         -1.2130    5.1590    0.5250 c3        1 MOL      0.323975
     24 C10        -1.1830    6.7140    0.3280 c3        1 MOL     -0.022447
     25 C11        -0.9140    4.4630   -0.8030 c3        1 MOL     -0.260789
     26 C12        -1.2750    7.4980    1.6110 c3        1 MOL     -0.213867
     27 H8         -1.8750    2.5510    1.0040 hn        1 MOL      0.071603
     28 H9         -2.8060    5.1530    1.9200 h1        1 MOL      0.111435
     29 H10        -0.3980    4.9820    1.2240 hc        1 MOL      0.008966
     30 H11        -1.8430    7.0430   -0.4780 hc        1 MOL      0.020148
     31 H12        -0.2020    7.0390    0.0020 hc        1 MOL      0.020148
     32 H13        -1.3560    5.0370   -1.6060 hc        1 MOL      0.039864
     33 H14         0.1600    4.3360   -0.9140 hc        1 MOL      0.039864
     34 H15        -1.3760    3.4690   -0.8430 hc        1 MOL      0.039864
     35 H16        -1.3000    8.5730    1.4310 hc        1 MOL      0.034978
     36 H17        -2.1110    7.1860    2.2480 hc        1 MOL      0.034978
     37 H18        -0.4190    7.2170    2.2300 hc        1 MOL      0.034978
     38 N3         -4.3130    3.8230   -0.5150 n         1 MOL     -0.678929
     39 C13        -5.2630    3.8860   -1.7060 c3        1 MOL      0.456428
     40 C14        -6.4610    2.8890   -1.5590 c         1 MOL      0.275223
     41 O6         -7.4980    2.9580   -2.2980 o         1 MOL     -0.546714
     42 C15        -4.6020    3.6930   -3.0730 c3        1 MOL     -0.601404
     43 C16        -3.6240    2.4820   -3.0950 c         1 MOL      1.059712
     44 O7         -2.7630    2.3230   -3.9730 o         1 MOL     -0.765672
     45 O8         -3.9160    1.5300   -2.4670 o         1 MOL     -0.765672
     46 H19        -4.1750    2.8860   -0.1430 hn        1 MOL      0.278558
     47 H20        -5.6650    4.9060   -1.6710 h1        1 MOL      0.004956
     48 H21        -4.1890    4.6960   -3.1600 hc        1 MOL      0.125329
     49 H22        -5.2960    3.5900   -3.9160 hc        1 MOL      0.125329
     50 N4         -6.4100    2.0300   -0.5560 n         1 MOL     -0.066262
     51 C17        -7.5300    1.4870    0.1140 c3        1 MOL     -0.218821
     52 C18        -8.0360    0.0770   -0.3020 c         1 MOL      0.637344
     53 O9         -9.2390   -0.1470   -0.3640 o         1 MOL     -0.617867
     54 H23        -5.5470    1.8780   -0.0640 hn        1 MOL      0.170522
     55 H24        -8.4420    2.0460   -0.0570 h1        1 MOL      0.068909
     56 H25        -7.3600    1.4330    1.1900 h1        1 MOL      0.068909
     57 N5         -7.0510   -0.7870   -0.6880 n         1 MOL     -0.278077
     58 C19        -7.2530   -2.0880   -1.2950 c3        1 MOL      0.070919
     59 C20        -7.0640   -3.1860   -0.3020 c         1 MOL      0.308708
     60 O10        -7.3700   -4.3460   -0.5520 o         1 MOL     -0.552803
     61 C21        -6.2880   -2.2450   -2.4980 c3        1 MOL     -0.290083
     62 C22        -4.8380   -1.9160   -2.0990 c         1 MOL      0.760646
     63 O11        -4.0660   -1.4650   -2.9450 o         1 MOL     -0.718752
     64 O12        -4.4710   -1.9910   -0.9210 o         1 MOL     -0.718752
     65 H26        -6.1000   -0.4840   -0.5650 hn        1 MOL      0.187666
     66 H27        -8.2700   -2.2440   -1.6550 h1        1 MOL      0.072536
     67 H28        -6.6020   -1.5270   -3.2630 hc        1 MOL      0.081696
     68 H29        -6.3050   -3.2850   -2.8120 hc        1 MOL      0.081696
     69 N6         -6.5260   -2.8800    0.8360 n         1 MOL      0.009355
     70 C23        -6.2600   -3.8020    1.9370 c3        1 MOL     -0.152733
     71 C24        -4.9780   -4.5880    1.7920 c         1 MOL      0.613021
     72 O13        -4.9030   -5.7440    2.1610 o         1 MOL     -0.620420
     73 H30        -6.4180   -1.9000    1.0630 hn        1 MOL      0.085094
     74 H31        -7.0420   -4.5580    2.0100 h1        1 MOL      0.054630
     75 H32        -6.1530   -3.2650    2.8760 h1        1 MOL      0.054630
     76 N7         -3.9260   -4.0540    1.2100 n         1 MOL     -0.312755
     77 C25        -2.5740   -4.6240    1.2120 c3        1 MOL     -0.032600
     78 C26        -1.5800   -3.4120    1.1820 c         1 MOL      0.458241
     79 O14        -2.0010   -2.2150    1.0370 o         1 MOL     -0.586568
     80 C27        -2.4120   -5.5870    0.0990 c3        1 MOL      0.043108
     81 C28        -2.6250   -5.1340   -1.3610 c3        1 MOL     -0.188390
     82 C29        -1.5080   -4.2910   -1.9380 c         1 MOL      0.452004
     83 N8         -0.4510   -4.8170   -2.4590 n         1 MOL     -0.560614
     84 O15        -1.6230   -3.0650   -2.0820 o         1 MOL     -0.544242
     85 H33        -4.0880   -3.2230    0.6580 hn        1 MOL      0.258748
     86 H34        -2.3940   -5.1340    2.1610 h1        1 MOL      0.076134
     87 H35        -2.9800   -6.5050    0.1570 hc        1 MOL     -0.015075
     88 H36        -1.3670   -5.8880    0.1050 hc        1 MOL     -0.015075
     89 H37        -3.5820   -4.6560   -1.5290 hc        1 MOL      0.104108
     90 H38        -2.8010   -5.9900   -2.0140 hc        1 MOL      0.104108
     91 H39        -0.3150   -5.8140   -2.3590 hn        1 MOL      0.287775
     92 H40         0.3150   -4.2130   -2.7250 hn        1 MOL      0.287775
     93 N9         -0.2920   -3.7000    1.3850 n         1 MOL     -0.294015
     94 C30         0.7730   -2.7720    1.6290 c3        1 MOL     -0.008096
     95 C31         1.9730   -3.1420    0.7250 c         1 MOL      0.299346
     96 O16         2.7030   -4.0900    0.9430 o         1 MOL     -0.523637
     97 C32         1.1700   -2.7410    3.1180 c3        1 MOL      0.273636
     98 C33         2.1530   -1.6420    3.3880 c3        1 MOL     -0.347761
     99 C34        -0.0730   -2.6120    4.0120 c3        1 MOL     -0.347761
    100 H41        -0.0470   -4.6450    1.6620 hn        1 MOL      0.277743
    101 H42         0.4870   -1.7570    1.3350 h1        1 MOL      0.104842
    102 H43         1.6070   -3.7230    3.2820 hc        1 MOL     -0.049285
    103 H44         2.6390   -1.9460    4.3110 hc        1 MOL      0.077449
    104 H45         2.8960   -1.5440    2.5970 hc        1 MOL      0.077449
    105 H46         1.6080   -0.7140    3.5810 hc        1 MOL      0.077449
    106 H47         0.1880   -2.3320    5.0310 hc        1 MOL      0.077449
    107 H48        -0.7760   -1.8300    3.7140 hc        1 MOL      0.077449
    108 H49        -0.5730   -3.5850    4.0160 hc        1 MOL      0.077449
    109 N10         2.1340   -2.4020   -0.3770 n         1 MOL     -0.138626
    110 C35         3.3810   -2.4120   -1.1090 c3        1 MOL      0.051916
    111 C36         4.6120   -1.8500   -0.4050 c         1 MOL      0.382336
    112 O17         4.4940   -1.0520    0.5390 o         1 MOL     -0.255732
    113 C37         3.0920   -1.7470   -2.4300 c3        1 MOL     -0.407883
    114 C38         1.8700   -2.4020   -3.1000 c         1 MOL      0.758834
    115 N11         0.7510   -1.7920   -3.0450 n         1 MOL     -0.740452
    116 O18         1.8660   -3.4540   -3.7320 o         1 MOL     -0.634520
    117 H50         1.4580   -1.6760   -0.5460 hn        1 MOL      0.189553
    118 H51         3.6300   -3.4310   -1.4000 h1        1 MOL      0.058432
    119 H52         3.9420   -1.9420   -3.0820 hc        1 MOL      0.064023
    120 H53         2.9380   -0.6720   -2.2900 hc        1 MOL      0.064023
    121 H54         0.8680   -0.9320   -2.5270 hn        1 MOL      0.401114
    122 H55        -0.0950   -2.1300   -3.4890 hn        1 MOL      0.401114
    123 N12         5.8090   -2.2300   -0.9680 n         1 MOL     -0.536787
    124 C39         7.0130   -1.6470   -0.4400 c3        1 MOL      0.163015
    125 C40         7.0210   -0.0640   -0.4160 c         1 MOL      0.547122
    126 O19         7.5090    0.5040    0.5430 o         1 MOL     -0.493281
    127 C41         8.2020   -2.1970   -1.2360 c3        1 MOL     -0.119341
    128 C42         9.5130   -1.6620   -0.7330 ca        1 MOL      0.126517
    129 C43         9.8800   -1.9460    0.6030 ca        1 MOL     -0.328434
    130 C44        10.3000   -0.8070   -1.5770 ca        1 MOL     -0.328434
    131 C45        11.0950   -1.4690    1.1180 ca        1 MOL     -0.079708
    132 C46        11.3990   -0.1500   -0.9890 ca        1 MOL     -0.079708
    133 C47        11.8420   -0.5850    0.2890 ca        1 MOL      0.183347
    134 O20        12.9850   -0.1280    0.8020 oh        1 MOL     -0.471396
    135 H56         5.8320   -2.9140   -1.7100 hn        1 MOL      0.331990
    136 H57         7.1080   -1.9950    0.5850 h1        1 MOL      0.065289
    137 H58         8.1470   -1.9190   -2.2950 hc        1 MOL      0.042671
    138 H59         8.1650   -3.2860   -1.2030 hc        1 MOL      0.042671
    139 H60         9.2770   -2.6470    1.1720 ha        1 MOL      0.175905
    140 H61         9.8960   -0.5000   -2.5400 ha        1 MOL      0.175905
    141 H62        11.4550   -1.7560    2.0940 ha        1 MOL      0.114083
    142 H63        11.8830    0.5890   -1.6160 ha        1 MOL      0.114083
    143 H64        13.4240    0.4690    0.1990 ho        1 MOL      0.356990
    144 N13         6.2760    0.6760   -1.3240 n         1 MOL     -0.461490
    145 C48         6.1010    2.1230   -1.3060 c3        1 MOL      0.024786
    146 C49         5.2570    2.6450   -0.0640 c         1 MOL      0.279549
    147 O21         5.3670    3.7610    0.3600 o         1 MOL     -0.466954
    148 C50         5.5660    2.7200   -2.5890 c3        1 MOL     -0.078681
    149 C51         4.0960    2.3340   -2.9950 c3        1 MOL     -0.233033
    150 C52         3.9260    2.7720   -4.4310 c         1 MOL      0.633577
    151 O22         4.1220    3.9900   -4.6280 o         1 MOL     -0.710562
    152 O23         3.4540    1.9330   -5.2490 o         1 MOL     -0.710562
    153 H65         5.9600    0.2340   -2.1700 hn        1 MOL      0.274434
    154 H66         7.1010    2.5560   -1.2530 h1        1 MOL      0.060935
    155 H67         6.3080    2.3650   -3.3000 hc        1 MOL      0.050817
    156 H68         5.6330    3.8000   -2.6990 hc        1 MOL      0.050817
    157 H69         3.3600    2.9330   -2.4550 hc        1 MOL      0.099052
    158 H70         3.9800    1.3030   -2.6510 hc        1 MOL      0.099052
    159 N14         4.3240    1.7480    0.3960 n         1 MOL     -0.229571
    160 C53         3.4680    1.9530    1.6000 c3        1 MOL     -0.029194
    161 C54         4.1490    1.5350    2.8790 c         1 MOL      0.536733
    162 O24         3.9790    2.1590    3.8970 o         1 MOL     -0.581206
    163 C55         2.2370    1.2190    1.4290 c3        1 MOL      0.072138
    164 C56         1.3450    1.6800    0.2730 c3        1 MOL     -0.057087
    165 C57         0.0780    0.7360   -0.0460 c         1 MOL      0.800673
    166 O25        -1.0620    1.0550    0.3150 o         1 MOL     -0.773994
    167 O26         0.2270   -0.2500   -0.7480 o         1 MOL     -0.773994
    168 H71         4.1490    0.8500   -0.0340 hn        1 MOL      0.307049
    169 H72         3.3000    3.0110    1.7950 h1        1 MOL      0.094969
    170 H73         1.5850    1.3560    2.2910 hc        1 MOL      0.019419
    171 H74         2.4250    0.1520    1.2750 hc        1 MOL      0.019419
    172 H75         1.9090    1.6180   -0.6680 hc        1 MOL     -0.014375
    173 H76         1.0560    2.7200    0.4170 hc        1 MOL     -0.014375
    174 N15         5.0990    0.6350    2.7630 n         1 MOL     -0.118882
    175 C58         5.9510    0.1700    3.8760 c3        1 MOL     -0.313823
    176 H77         5.3270   -0.2870    4.6430 h1        1 MOL      0.105531
    177 H78         6.6660   -0.5650    3.5050 h1        1 MOL      0.105531
    178 H79         6.4890    1.0170    4.3020 h1        1 MOL      0.105531
    179 H80         5.0350    0.0200    1.9700 hn        1 MOL      0.054549
    180 Ca1        -2.4510   -0.4110   -1.1220 Ca        1 MOL      1.755334
    181 O27        -1.1040    0.5790   -3.2950 oh        1 MOL     -0.929491
    182 H81        -1.6990    1.3100   -3.4660 ho        1 MOL      0.422543
    183 H82        -0.3360    0.7750   -3.8270 ho        1 MOL      0.422543
@<TRIPOS>BOND
     1    1    2 1   
     2    1    4 1   
     3    1    5 1   
     4    1    6 1   
     5    2    3 2   
     6    2    7 1   
     7    7    8 1   
     8    7   15 1   
     9    8    9 1   
    10    8   11 1   
    11    8   16 1   
    12    9   10 2   
    13    9   19 1   
    14   11   12 1   
    15   11   17 1   
    16   11   18 1   
    17   12   13 1   
    18   12   14 1   
    19   19   20 1   
    20   19   27 1   
    21   20   21 1   
    22   20   23 1   
    23   20   28 1   
    24   21   22 2   
    25   21   38 1   
    26   23   24 1   
    27   23   25 1   
    28   23   29 1   
    29   24   26 1   
    30   24   30 1   
    31   24   31 1   
    32   25   32 1   
    33   25   33 1   
    34   25   34 1   
    35   26   35 1   
    36   26   36 1   
    37   26   37 1   
    38   38   39 1   
    39   38   46 1   
    40   39   40 1   
    41   39   42 1   
    42   39   47 1   
    43   40   41 2   
    44   40   50 1   
    45   42   43 1   
    46   42   48 1   
    47   42   49 1   
    48   43   44 1   
    49   43   45 1   
    50   50   51 1   
    51   50   54 1   
    52   51   52 1   
    53   51   55 1   
    54   51   56 1   
    55   52   53 2   
    56   52   57 1   
    57   57   58 1   
    58   57   65 1   
    59   58   59 1   
    60   58   61 1   
    61   58   66 1   
    62   59   60 2   
    63   59   69 1   
    64   61   62 1   
    65   61   67 1   
    66   61   68 1   
    67   62   63 1   
    68   62   64 1   
    69   69   70 1   
    70   69   73 1   
    71   70   71 1   
    72   70   74 1   
    73   70   75 1   
    74   71   72 2   
    75   71   76 1   
    76   76   77 1   
    77   76   85 1   
    78   77   78 1   
    79   77   80 1   
    80   77   86 1   
    81   78   79 2   
    82   78   93 1   
    83   80   81 1   
    84   80   87 1   
    85   80   88 1   
    86   81   82 1   
    87   81   89 1   
    88   81   90 1   
    89   82   83 1   
    90   82   84 2   
    91   83   91 1   
    92   83   92 1   
    93   93   94 1   
    94   93  100 1   
    95   94   95 1   
    96   94   97 1   
    97   94  101 1   
    98   95   96 2   
    99   95  109 1   
   100   97   98 1   
   101   97   99 1   
   102   97  102 1   
   103   98  103 1   
   104   98  104 1   
   105   98  105 1   
   106   99  106 1   
   107   99  107 1   
   108   99  108 1   
   109  109  110 1   
   110  109  117 1   
   111  110  111 1   
   112  110  113 1   
   113  110  118 1   
   114  111  112 2   
   115  111  123 1   
   116  113  114 1   
   117  113  119 1   
   118  113  120 1   
   119  114  115 1   
   120  114  116 2   
   121  115  121 1   
   122  115  122 1   
   123  123  124 1   
   124  123  135 1   
   125  124  125 1   
   126  124  127 1   
   127  124  136 1   
   128  125  126 2   
   129  125  144 1   
   130  127  128 1   
   131  127  137 1   
   132  127  138 1   
   133  128  129 ar  
   134  128  130 ar  
   135  129  131 ar  
   136  129  139 1   
   137  130  132 ar  
   138  130  140 1   
   139  131  133 ar  
   140  131  141 1   
   141  132  133 ar  
   142  132  142 1   
   143  133  134 1   
   144  134  143 1   
   145  144  145 1   
   146  144  153 1   
   147  145  146 1   
   148  145  148 1   
   149  145  154 1   
   150  146  147 2   
   151  146  159 1   
   152  148  149 1   
   153  148  155 1   
   154  148  156 1   
   155  149  150 1   
   156  149  157 1   
   157  149  158 1   
   158  150  151 1   
   159  150  152 1   
   160  159  160 1   
   161  159  168 1   
   162  160  161 1   
   163  160  163 1   
   164  160  169 1   
   165  161  162 2   
   166  161  174 1   
   167  163  164 1   
   168  163  170 1   
   169  163  171 1   
   170  164  165 1   
   171  164  172 1   
   172  164  173 1   
   173  165  166 1   
   174  165  167 1   
   175  174  175 1   
   176  174  179 1   
   177  175  176 1   
   178  175  177 1   
   179  175  178 1   
   180  181  182 1   
   181  181  183 1   
@<TRIPOS>SUBSTRUCTURE
     1 MOL         1 TEMP              0 ****  ****    0 ROOT
