@<TRIPOS>MOLECULE
MOL
  175   173     1     0     0
SMALL
resp


@<TRIPOS>ATOM
      1 C1          0.4660    4.1810    5.7030 c3        1 MOL     -0.479930
      2 C2         -0.0010    3.9870    4.2780 c         1 MOL      0.730636
      3 O1          0.7560    4.2780    3.3600 o         1 MOL     -0.539726
      4 H1         -0.3960    4.1860    6.3690 hc        1 MOL      0.115829
      5 H2          1.1340    3.3660    5.9810 hc        1 MOL      0.115829
      6 H3          0.9940    5.1300    5.7870 hc        1 MOL      0.115829
      7 N1         -1.2760    3.6440    4.1100 n         1 MOL     -0.591669
      8 C3         -1.8480    3.4260    2.8090 c3        1 MOL      0.151111
      9 C4         -1.7180    4.6900    1.9130 c         1 MOL      0.506970
     10 O2         -1.7370    5.8810    2.3460 o         1 MOL     -0.569153
     11 C5         -3.3120    3.0090    2.9590 c3        1 MOL     -0.153389
     12 C6         -3.9920    2.7840    1.6210 c         1 MOL      0.604628
     13 O3         -5.1540    3.2160    1.3940 o         1 MOL     -0.626892
     14 O4         -3.3720    2.1140    0.7590 o         1 MOL     -0.626892
     15 H4         -1.8740    3.4900    4.9100 hn        1 MOL      0.310457
     16 H5         -1.2980    2.6110    2.3440 h1        1 MOL     -0.023628
     17 H6         -3.8810    3.7540    3.5220 hc        1 MOL      0.029007
     18 H7         -3.4240    2.1630    3.6390 hc        1 MOL      0.029007
     19 N2         -1.8550    4.3640    0.6130 n         1 MOL     -0.353991
     20 C7         -1.7650    5.3100   -0.5160 c3        1 MOL      0.158032
     21 C8         -2.6270    4.9800   -1.7210 c         1 MOL      0.454909
     22 O5         -2.6340    5.6940   -2.7130 o         1 MOL     -0.565592
     23 C9         -0.2610    5.3730   -0.8760 c3        1 MOL     -0.205958
     24 H8         -1.7110    3.4070    0.3240 hn        1 MOL      0.407409
     25 H9         -2.2090    6.2640   -0.2400 h1        1 MOL      0.033712
     26 H10        -0.1690    6.1790   -1.6010 hc        1 MOL      0.045384
     27 H11         0.3920    5.6400   -0.0550 hc        1 MOL      0.045384
     28 H12         0.1280    4.4090   -1.2180 hc        1 MOL      0.045384
     29 N3         -3.3630    3.8340   -1.6900 n         1 MOL     -0.154119
     30 C10        -4.3460    3.5350   -2.7510 c3        1 MOL      0.104244
     31 C11        -5.6640    2.8300   -2.3560 c         1 MOL      0.327770
     32 O6         -6.4850    2.6680   -3.2280 o         1 MOL     -0.526862
     33 C12        -3.6440    2.6380   -3.7820 c3        1 MOL     -0.341936
     34 C13        -3.0210    1.3180   -3.2930 c         1 MOL      0.765557
     35 O7         -2.1350    0.8150   -4.0040 o         1 MOL     -0.686435
     36 O8         -3.3210    0.9270   -2.1720 o         1 MOL     -0.686435
     37 H13        -3.3360    3.2880   -0.8430 hn        1 MOL     -0.036145
     38 H14        -4.5860    4.5180   -3.1570 h1        1 MOL      0.068527
     39 H15        -2.8440    3.2630   -4.1750 hc        1 MOL      0.076590
     40 H16        -4.3340    2.3390   -4.5580 hc        1 MOL      0.076590
     41 N4         -5.8650    2.2790   -1.1400 n         1 MOL     -0.096780
     42 C14        -7.0640    1.6360   -0.6040 c3        1 MOL     -0.141015
     43 C15        -7.3460    0.2420   -1.2280 c         1 MOL      0.440547
     44 O9         -8.5040   -0.1650   -1.1100 o         1 MOL     -0.576244
     45 H17        -5.0540    2.2830   -0.5300 hn        1 MOL      0.083340
     46 H18        -7.9890    2.1880   -0.7680 h1        1 MOL      0.097887
     47 H19        -7.0260    1.6100    0.4820 h1        1 MOL      0.097887
     48 N5         -6.2780   -0.4610   -1.6620 n         1 MOL     -0.246487
     49 C16        -6.3770   -1.8430   -2.1000 c3        1 MOL      0.012256
     50 C17        -6.4920   -2.9070   -1.0220 c         1 MOL      0.442673
     51 O10        -6.5720   -4.0800   -1.2900 o         1 MOL     -0.519341
     52 C18        -5.2470   -2.1460   -3.1280 c3        1 MOL     -0.241175
     53 C19        -3.8040   -2.1810   -2.5890 c         1 MOL      0.371370
     54 N6         -2.7960   -2.3340   -3.4080 n         1 MOL     -0.474154
     55 O11        -3.4980   -2.0440   -1.3610 o         1 MOL     -0.254132
     56 H20        -5.3430   -0.0550   -1.6530 hn        1 MOL      0.259235
     57 H21        -7.3160   -1.9750   -2.6410 h1        1 MOL      0.108632
     58 H22        -5.2320   -1.4230   -3.9410 hc        1 MOL      0.081416
     59 H23        -5.4810   -3.1510   -3.4770 hc        1 MOL      0.081416
     60 H24        -3.0510   -2.2020   -4.3820 hn        1 MOL      0.297228
     61 H25        -1.8170   -2.3930   -3.1590 hn        1 MOL      0.297228
     62 N7         -6.4590   -2.5430    0.2910 n         1 MOL     -0.198537
     63 C20        -6.5150   -3.4350    1.4200 c3        1 MOL     -0.461938
     64 C21        -5.2740   -4.1520    1.7190 c         1 MOL      0.635410
     65 O12        -5.2920   -4.9500    2.6470 o         1 MOL     -0.587205
     66 H26        -6.1540   -1.6010    0.4850 hn        1 MOL      0.180789
     67 H27        -7.2790   -4.1550    1.1440 h1        1 MOL      0.176732
     68 H28        -6.8170   -2.8380    2.2840 h1        1 MOL      0.176732
     69 N8         -4.1130   -3.7410    1.1930 n         1 MOL     -0.161108
     70 C22        -2.8940   -4.3620    1.4940 c3        1 MOL     -0.424609
     71 C23        -1.6870   -3.3530    1.5610 c         1 MOL      0.739374
     72 O13        -1.8140   -2.2250    0.9660 o         1 MOL     -0.695205
     73 C24        -2.4910   -5.3300    0.3330 c3        1 MOL      0.589736
     74 C25        -3.5120   -6.4210    0.0920 c3        1 MOL     -0.564810
     75 O14        -2.4950   -4.6270   -0.9730 oh        1 MOL     -0.562066
     76 H29        -4.1870   -3.1150    0.4030 hn        1 MOL      0.278116
     77 H30        -2.8790   -4.9060    2.4350 h1        1 MOL      0.131863
     78 H31        -1.5470   -5.8050    0.6050 h1        1 MOL     -0.031523
     79 H32        -2.7300   -3.7030   -0.8610 ho        1 MOL      0.199794
     80 H33        -3.9820   -6.8410    0.9800 hc        1 MOL      0.133636
     81 H34        -4.3710   -6.0640   -0.4770 hc        1 MOL      0.133636
     82 H35        -2.9840   -7.1780   -0.4870 hc        1 MOL      0.133636
     83 N9         -0.5040   -3.7070    2.1590 n         1 MOL     -0.700450
     84 C26         0.7400   -2.8970    2.1670 c3        1 MOL     -0.083921
     85 C27         1.4730   -3.1640    0.7680 c         1 MOL      0.736899
     86 O15         1.8770   -4.2810    0.4540 o         1 MOL     -0.592397
     87 C28         1.6850   -3.3220    3.3230 c3        1 MOL      0.179741
     88 C29         0.9400   -3.6010    4.6790 c3        1 MOL      0.094848
     89 C30         2.6970   -2.1360    3.5700 c3        1 MOL     -0.349497
     90 C31         1.9400   -4.0660    5.7650 c3        1 MOL     -0.208122
     91 H36        -0.5520   -4.5910    2.6390 hn        1 MOL      0.361078
     92 H37         0.4390   -1.8690    2.3550 h1        1 MOL      0.160460
     93 H38         2.2330   -4.1980    2.9690 hc        1 MOL     -0.018776
     94 H39         0.1920   -4.3570    4.4860 hc        1 MOL     -0.014262
     95 H40         0.5430   -2.6740    5.0870 hc        1 MOL     -0.014262
     96 H41         2.1560   -1.3150    4.0340 hc        1 MOL      0.085805
     97 H42         3.5430   -2.5750    4.1100 hc        1 MOL      0.085805
     98 H43         3.0160   -1.7000    2.6240 hc        1 MOL      0.085805
     99 H44         2.5210   -3.1880    6.0770 hc        1 MOL      0.043407
    100 H45         1.2790   -4.3350    6.5910 hc        1 MOL      0.043407
    101 H46         2.6170   -4.8950    5.5370 hc        1 MOL      0.043407
    102 N10         1.6280   -2.0810   -0.0420 n         1 MOL     -0.454071
    103 C32         2.4560   -2.1550   -1.2790 c3        1 MOL      0.063195
    104 C33         3.8680   -1.6260   -0.9470 c         1 MOL      0.256879
    105 O16         4.1090   -0.9640    0.0260 o         1 MOL     -0.217550
    106 C34         1.8350   -1.1950   -2.2500 c3        1 MOL     -0.423490
    107 C35         0.3540   -1.4830   -2.4810 c         1 MOL      0.929069
    108 O17        -0.0250   -2.4530   -3.1780 o         1 MOL     -0.731803
    109 O18        -0.5400   -0.7770   -2.0340 o         1 MOL     -0.731803
    110 H47         1.3600   -1.1760    0.2990 hn        1 MOL      0.246647
    111 H48         2.3580   -3.1430   -1.7080 h1        1 MOL      0.094036
    112 H49         2.3690   -1.2900   -3.2050 hc        1 MOL      0.099439
    113 H50         1.8730   -0.1950   -1.8410 hc        1 MOL      0.099439
    114 N11         4.8170   -1.9340   -1.7890 n         1 MOL     -0.398349
    115 C36         6.2080   -1.6760   -1.5160 c3        1 MOL      0.206793
    116 C37         6.5120   -0.2640   -1.0580 c         1 MOL      0.342453
    117 O19         7.1880    0.0400   -0.1330 o         1 MOL     -0.541101
    118 C38         6.9960   -2.0790   -2.8390 c3        1 MOL     -0.353290
    119 C39         8.5190   -1.8450   -2.5660 ca        1 MOL      0.230012
    120 C40         9.2470   -0.6960   -2.9410 ca        1 MOL     -0.291295
    121 C41         9.2540   -2.8140   -1.8580 ca        1 MOL     -0.291295
    122 C42        10.5530   -0.5040   -2.5230 ca        1 MOL      0.005236
    123 C43        10.5810   -2.5830   -1.4490 ca        1 MOL      0.005236
    124 C44        11.2720   -1.4180   -1.8180 ca        1 MOL     -0.197487
    125 H51         4.5880   -2.4110   -2.6510 hn        1 MOL      0.296320
    126 H52         6.4720   -2.4520   -0.8070 h1        1 MOL      0.072220
    127 H53         6.7390   -1.3950   -3.6440 hc        1 MOL      0.107249
    128 H54         6.9020   -3.1340   -3.1000 hc        1 MOL      0.107249
    129 H55         8.8400    0.1070   -3.5330 ha        1 MOL      0.143355
    130 H56         8.7690   -3.7200   -1.5300 ha        1 MOL      0.143355
    131 H57        10.8870    0.4870   -2.7910 ha        1 MOL      0.078672
    132 H58        11.1390   -3.3730   -0.9640 ha        1 MOL      0.078672
    133 H59        12.2860   -1.1760   -1.5510 ha        1 MOL      0.119165
    134 N12         6.0150    0.8050   -1.6950 n         1 MOL      0.100088
    135 C45         6.3630    2.2380   -1.3320 c3        1 MOL      0.035326
    136 C46         5.6440    2.7000   -0.0230 c         1 MOL      0.308184
    137 O20         5.7130    3.8740    0.3840 o         1 MOL     -0.526127
    138 C47         6.0750    3.1530   -2.5380 c3        1 MOL     -0.324572
    139 C48         5.7550    2.1120   -3.6330 c3        1 MOL      0.370348
    140 C49         5.1990    0.8930   -2.9330 c3        1 MOL     -0.145028
    141 H60         7.4320    2.1760   -1.1350 h1        1 MOL      0.085309
    142 H61         5.2180    3.8040   -2.3580 hc        1 MOL      0.101177
    143 H62         6.9780    3.6940   -2.8070 hc        1 MOL      0.101177
    144 H63         5.0950    2.4500   -4.4280 hc        1 MOL     -0.090496
    145 H64         6.7190    1.8760   -4.1030 hc        1 MOL     -0.090496
    146 H65         4.1290    0.9980   -2.7400 h1        1 MOL      0.045720
    147 H66         5.4290    0.1120   -3.6600 h1        1 MOL      0.045720
    148 N13         4.8110    1.8760    0.6000 n         1 MOL     -0.067542
    149 C50         4.1720    2.1510    1.9110 c3        1 MOL     -0.071385
    150 C51         4.7810    1.3080    3.0550 c         1 MOL      0.400084
    151 O21         4.8220    1.7580    4.2180 o         1 MOL     -0.538864
    152 C52         2.7100    1.7080    1.8190 c3        1 MOL     -0.039059
    153 C53         1.8530    2.3810    0.7380 c3        1 MOL     -0.049348
    154 C54         0.5650    1.5930    0.5120 c         1 MOL      0.799000
    155 O22        -0.3200    2.0790   -0.2320 o         1 MOL     -0.796595
    156 O23         0.3950    0.4380    0.9500 o         1 MOL     -0.796595
    157 H67         4.5420    1.0300    0.1160 hn        1 MOL      0.046770
    158 H68         4.2350    3.2120    2.1280 h1        1 MOL      0.118821
    159 H69         2.2240    1.8730    2.7830 hc        1 MOL      0.021755
    160 H70         2.7600    0.6320    1.7140 hc        1 MOL      0.021755
    161 H71         2.3070    2.4400   -0.2510 hc        1 MOL      0.056870
    162 H72         1.5370    3.3820    1.0200 hc        1 MOL      0.056870
    163 N14         5.3450    0.1150    2.7570 n         1 MOL     -0.043814
    164 C55         6.1460   -0.6200    3.7580 c3        1 MOL     -0.229613
    165 H73         5.5940   -0.6740    4.6960 h1        1 MOL      0.088853
    166 H74         6.3450   -1.6290    3.3960 h1        1 MOL      0.088853
    167 H75         7.0900   -0.1000    3.9210 h1        1 MOL      0.088853
    168 H76         5.2850   -0.1910    1.7990 hn        1 MOL      0.054636
    169 Ca1        -2.0690    0.0890   -0.1670 Ca        1 MOL      1.689024
    170 O24        -1.6550    0.1050    2.8050 oh        1 MOL     -0.755547
    171 H77        -0.7170   -0.0500    2.9680 ho        1 MOL      0.367254
    172 H78        -1.9480    0.6060    3.5630 ho        1 MOL      0.367254
    173 O25        -4.3230   -0.4700    1.1560 oh        1 MOL     -0.755547
    174 H79        -4.6920    0.3990    1.3290 ho        1 MOL      0.367254
    175 H80        -4.4770   -0.9610    1.9560 ho        1 MOL      0.367254
@<TRIPOS>BOND
     1    1    2 1   
     2    1    4 1   
     3    1    5 1   
     4    1    6 1   
     5    2    3 2   
     6    2    7 1   
     7    7    8 1   
     8    7   15 1   
     9    8    9 1   
    10    8   11 1   
    11    8   16 1   
    12    9   10 2   
    13    9   19 1   
    14   11   12 1   
    15   11   17 1   
    16   11   18 1   
    17   12   13 1   
    18   12   14 1   
    19   19   20 1   
    20   19   24 1   
    21   20   21 1   
    22   20   23 1   
    23   20   25 1   
    24   21   22 2   
    25   21   29 1   
    26   23   26 1   
    27   23   27 1   
    28   23   28 1   
    29   29   30 1   
    30   29   37 1   
    31   30   31 1   
    32   30   33 1   
    33   30   38 1   
    34   31   32 2   
    35   31   41 1   
    36   33   34 1   
    37   33   39 1   
    38   33   40 1   
    39   34   35 1   
    40   34   36 1   
    41   41   42 1   
    42   41   45 1   
    43   42   43 1   
    44   42   46 1   
    45   42   47 1   
    46   43   44 2   
    47   43   48 1   
    48   48   49 1   
    49   48   56 1   
    50   49   50 1   
    51   49   52 1   
    52   49   57 1   
    53   50   51 2   
    54   50   62 1   
    55   52   53 1   
    56   52   58 1   
    57   52   59 1   
    58   53   54 1   
    59   53   55 2   
    60   54   60 1   
    61   54   61 1   
    62   62   63 1   
    63   62   66 1   
    64   63   64 1   
    65   63   67 1   
    66   63   68 1   
    67   64   65 2   
    68   64   69 1   
    69   69   70 1   
    70   69   76 1   
    71   70   71 1   
    72   70   73 1   
    73   70   77 1   
    74   71   72 2   
    75   71   83 1   
    76   73   74 1   
    77   73   75 1   
    78   73   78 1   
    79   74   80 1   
    80   74   81 1   
    81   74   82 1   
    82   75   79 1   
    83   83   84 1   
    84   83   91 1   
    85   84   85 1   
    86   84   87 1   
    87   84   92 1   
    88   85   86 2   
    89   85  102 1   
    90   87   88 1   
    91   87   89 1   
    92   87   93 1   
    93   88   90 1   
    94   88   94 1   
    95   88   95 1   
    96   89   96 1   
    97   89   97 1   
    98   89   98 1   
    99   90   99 1   
   100   90  100 1   
   101   90  101 1   
   102  102  103 1   
   103  102  110 1   
   104  103  104 1   
   105  103  106 1   
   106  103  111 1   
   107  104  105 2   
   108  104  114 1   
   109  106  107 1   
   110  106  112 1   
   111  106  113 1   
   112  107  108 1   
   113  107  109 1   
   114  114  115 1   
   115  114  125 1   
   116  115  116 1   
   117  115  118 1   
   118  115  126 1   
   119  116  117 2   
   120  116  134 1   
   121  118  119 1   
   122  118  127 1   
   123  118  128 1   
   124  119  120 ar  
   125  119  121 ar  
   126  120  122 ar  
   127  120  129 1   
   128  121  123 ar  
   129  121  130 1   
   130  122  124 ar  
   131  122  131 1   
   132  123  124 ar  
   133  123  132 1   
   134  124  133 1   
   135  134  135 1   
   136  134  140 1   
   137  135  136 1   
   138  135  138 1   
   139  135  141 1   
   140  136  137 2   
   141  136  148 1   
   142  138  139 1   
   143  138  142 1   
   144  138  143 1   
   145  139  140 1   
   146  139  144 1   
   147  139  145 1   
   148  140  146 1   
   149  140  147 1   
   150  148  149 1   
   151  148  157 1   
   152  149  150 1   
   153  149  152 1   
   154  149  158 1   
   155  150  151 2   
   156  150  163 1   
   157  152  153 1   
   158  152  159 1   
   159  152  160 1   
   160  153  154 1   
   161  153  161 1   
   162  153  162 1   
   163  154  155 1   
   164  154  156 1   
   165  163  164 1   
   166  163  168 1   
   167  164  165 1   
   168  164  166 1   
   169  164  167 1   
   170  170  171 1   
   171  170  172 1   
   172  173  174 1   
   173  173  175 1   
@<TRIPOS>SUBSTRUCTURE
     1 MOL         1 TEMP              0 ****  ****    0 ROOT
