@<TRIPOS>MOLECULE
MOL
  179   176     1     0     0
SMALL
resp


@<TRIPOS>ATOM
      1 C1         -1.9850    3.5130   -4.5400 c3        1 MOL     -0.298368
      2 C2         -1.4310    3.0460   -3.1530 c         1 MOL      0.610850
      3 O1         -2.1160    3.0570   -2.1270 o         1 MOL     -0.566370
      4 H1         -2.1580    4.5890   -4.5180 hc        1 MOL      0.075890
      5 H2         -1.2590    3.2780   -5.3190 hc        1 MOL      0.075890
      6 H3         -2.9220    2.9980   -4.7500 hc        1 MOL      0.075890
      7 N1         -0.1100    2.8720   -3.1830 n         1 MOL     -0.695023
      8 C3          0.7750    2.6420   -2.0480 c3        1 MOL     -0.087473
      9 C4          1.5040    3.9660   -1.7310 c         1 MOL      0.760140
     10 O2          2.7270    4.1180   -1.8850 o         1 MOL     -0.517362
     11 C5          1.8110    1.6790   -2.5530 c3        1 MOL     -0.182447
     12 C6          2.8330    1.1180   -1.5470 c         1 MOL      0.787201
     13 O3          3.9890    0.8220   -1.8710 o         1 MOL     -0.735264
     14 O4          2.4320    0.9730   -0.3690 o         1 MOL     -0.735264
     15 H4          0.2880    2.8600   -4.1110 hn        1 MOL      0.397789
     16 H5          0.2350    2.2920   -1.1610 h1        1 MOL      0.125057
     17 H6          2.3510    2.0890   -3.4040 hc        1 MOL      0.050766
     18 H7          1.2710    0.8090   -2.9080 hc        1 MOL      0.050766
     19 N2          0.7090    4.8200   -1.1410 n         1 MOL     -0.702402
     20 C7          1.1520    5.9990   -0.4270 c3        1 MOL      0.193182
     21 C8          2.3450    5.9600    0.4770 c         1 MOL      0.439291
     22 O5          3.2120    6.7970    0.3500 o         1 MOL     -0.543210
     23 C9         -0.0630    6.7270    0.1770 c3        1 MOL     -0.278266
     24 C10        -1.0630    6.9940   -0.9400 c3        1 MOL      0.133370
     25 C11        -2.1270    8.0740   -0.6240 c3        1 MOL      0.061137
     26 C12        -2.7840    8.5960   -1.9440 c3        1 MOL     -0.116419
     27 N3         -3.9020    7.6860   -2.1810 n4        1 MOL     -0.284230
     28 H8         -0.2580    4.5520   -1.0060 hn        1 MOL      0.423134
     29 H9          1.5250    6.6330   -1.2350 h1        1 MOL      0.038710
     30 H10         0.3220    7.6790    0.5340 hc        1 MOL      0.085219
     31 H11        -0.4100    6.1000    1.0000 hc        1 MOL      0.085219
     32 H12        -1.6520    6.1180   -1.2020 hc        1 MOL     -0.008542
     33 H13        -0.5790    7.4140   -1.8220 hc        1 MOL     -0.008542
     34 H14        -1.6530    8.9490   -0.1640 hc        1 MOL      0.025201
     35 H15        -2.8560    7.6890    0.0880 hc        1 MOL      0.025201
     36 H16        -2.0440    8.4350   -2.7210 hx        1 MOL      0.117196
     37 H17        -3.1240    9.6140   -1.7460 hx        1 MOL      0.117196
     38 H18        -4.4500    7.3990   -1.3810 hn        1 MOL      0.318765
     39 H19        -4.5020    8.0760   -2.9070 hn        1 MOL      0.318765
     40 H20        -3.4610    6.9180   -2.6680 hn        1 MOL      0.318765
     41 N4          2.4590    5.0370    1.4100 n         1 MOL     -0.258015
     42 C13         3.5510    4.8760    2.4060 c3        1 MOL     -0.135722
     43 C14         4.8730    4.4880    1.7500 c         1 MOL      0.429703
     44 O6          5.9400    4.6360    2.3540 o         1 MOL     -0.528739
     45 C15         3.2900    3.8540    3.4940 c3        1 MOL     -0.243307
     46 C16         2.6710    2.5070    3.0860 c         1 MOL      0.736909
     47 O7          3.2160    1.4070    3.3050 o         1 MOL     -0.716207
     48 O8          1.5730    2.5370    2.5020 o         1 MOL     -0.716207
     49 H21         1.7510    4.3210    1.3710 hn        1 MOL      0.249775
     50 H22         3.6580    5.8140    2.9530 h1        1 MOL      0.146283
     51 H23         2.5040    4.2950    4.1100 hc        1 MOL      0.085736
     52 H24         4.1540    3.7780    4.1380 hc        1 MOL      0.085736
     53 N5          4.8690    3.8330    0.5830 n         1 MOL      0.007947
     54 C17         6.0620    3.2990   -0.1570 c3        1 MOL     -0.268425
     55 C18         6.5990    2.0030    0.4710 c         1 MOL      0.765820
     56 O9          7.7360    2.1080    1.0140 o         1 MOL     -0.594815
     57 H25         3.9430    3.6920    0.2270 hn        1 MOL      0.079203
     58 H26         6.8450    4.0420   -0.0020 h1        1 MOL      0.107433
     59 H27         5.8610    3.2350   -1.2270 h1        1 MOL      0.107433
     60 N6          5.9910    0.8950    0.2230 n         1 MOL     -0.550118
     61 C19         6.5830   -0.3950    0.6340 c3        1 MOL     -0.054223
     62 C20         6.4360   -1.6330   -0.3170 c         1 MOL      0.365403
     63 O10         6.8290   -2.7260   -0.0590 o         1 MOL     -0.438605
     64 C21         6.2710   -0.7730    2.1750 c3        1 MOL     -0.162080
     65 C22         4.8000   -1.2280    2.4570 c         1 MOL      0.654101
     66 N7          4.5260   -1.8590    3.6340 n         1 MOL     -0.764290
     67 O11         3.8710   -1.1280    1.6390 o         1 MOL     -0.538998
     68 H28         5.1330    1.0580   -0.2880 hn        1 MOL      0.243613
     69 H29         7.6540   -0.1970    0.6800 h1        1 MOL      0.141650
     70 H30         6.4480    0.1440    2.7300 hc        1 MOL      0.087586
     71 H31         6.8740   -1.5620    2.6090 hc        1 MOL      0.087586
     72 H32         5.2570   -2.0780    4.2870 hn        1 MOL      0.347899
     73 H33         3.6700   -2.3860    3.6070 hn        1 MOL      0.347899
     74 N8          5.9600   -1.3830   -1.5260 n         1 MOL     -0.218248
     75 C23         5.8260   -2.3880   -2.5630 c3        1 MOL     -0.429724
     76 C24         4.4780   -3.1540   -2.6960 c         1 MOL      0.620881
     77 O12         4.3250   -4.0470   -3.5240 o         1 MOL     -0.542440
     78 H34         5.6420   -0.4390   -1.7040 hn        1 MOL      0.336496
     79 H35         6.5200   -3.1840   -2.2990 h1        1 MOL      0.185695
     80 H36         6.0770   -1.9910   -3.5500 h1        1 MOL      0.185695
     81 N9          3.5630   -2.8370   -1.7150 n         1 MOL     -0.442009
     82 C25         2.2880   -3.5410   -1.4990 c3        1 MOL      0.255634
     83 C26         1.1150   -2.6220   -1.1880 c         1 MOL      0.340462
     84 O13         1.3500   -1.6010   -0.5510 o         1 MOL     -0.488925
     85 C27         2.4530   -4.5540   -0.3020 c3        1 MOL      0.265762
     86 C28         3.4780   -5.6780   -0.4110 ca        1 MOL     -0.128692
     87 C29         4.8830   -5.4000   -0.2960 ca        1 MOL     -0.082175
     88 C30         3.1220   -7.0260   -0.7690 ca        1 MOL     -0.082175
     89 C31         5.8830   -6.3840   -0.5150 ca        1 MOL     -0.309028
     90 C32         4.1510   -7.9940   -0.8830 ca        1 MOL     -0.309028
     91 C33         5.5310   -7.6560   -0.8300 ca        1 MOL      0.422229
     92 O14         6.5270   -8.5750   -1.1160 oh        1 MOL     -0.503698
     93 H37         3.6900   -1.9400   -1.2600 hn        1 MOL      0.282728
     94 H38         2.0750   -4.1090   -2.4070 h1        1 MOL     -0.014820
     95 H39         1.5310   -5.0960   -0.0890 hc        1 MOL     -0.066135
     96 H40         2.7390   -4.0570    0.6190 hc        1 MOL     -0.066135
     97 H41         5.1350   -4.3600   -0.1650 ha        1 MOL      0.097347
     98 H42         2.0840   -7.2550   -0.9310 ha        1 MOL      0.097347
     99 H43         6.9390   -6.1450   -0.5010 ha        1 MOL      0.139963
    100 H44         3.7900   -8.9870   -1.0880 ha        1 MOL      0.139963
    101 H45         6.2730   -9.5070   -1.1740 ho        1 MOL      0.352201
    102 N10        -0.1020   -3.0310   -1.5230 n         1 MOL     -0.388407
    103 C34        -1.3650   -2.4600   -1.0290 c3        1 MOL     -0.076631
    104 C35        -2.2840   -3.4710   -0.4050 c         1 MOL      0.489103
    105 O15        -2.2190   -4.6720   -0.7060 o         1 MOL     -0.539748
    106 C36        -2.0780   -1.6120   -2.1740 c3        1 MOL     -0.027448
    107 C37        -2.5270   -2.4570   -3.4190 c3        1 MOL     -0.141689
    108 C38        -1.2720   -0.3180   -2.4330 c3        1 MOL     -0.476428
    109 C39        -3.3990   -1.5700   -4.3110 c3        1 MOL     -0.140378
    110 H46        -0.1010   -3.9890   -1.8340 hn        1 MOL      0.259840
    111 H47        -1.0760   -1.8560   -0.1690 h1        1 MOL      0.212562
    112 H48        -2.9520   -1.1000   -1.7710 hc        1 MOL      0.084841
    113 H49        -3.1350   -3.2960   -3.0680 hc        1 MOL      0.088189
    114 H50        -1.6800   -2.7600   -4.0300 hc        1 MOL      0.088189
    115 H51        -1.1140    0.2160   -1.4900 hc        1 MOL      0.180388
    116 H52        -0.2940   -0.5700   -2.8490 hc        1 MOL      0.180388
    117 H53        -1.9310    0.3330   -2.9970 hc        1 MOL      0.180388
    118 H54        -4.0320   -2.1900   -4.9470 hc        1 MOL      0.037334
    119 H55        -4.0310   -1.0150   -3.6130 hc        1 MOL      0.037334
    120 H56        -2.7520   -0.9030   -4.8800 hc        1 MOL      0.037334
    121 N11        -3.1940   -3.0270    0.4400 n         1 MOL     -0.288747
    122 C40        -4.3390   -3.8000    0.9340 c3        1 MOL      0.170082
    123 C41        -5.6240   -3.4590    0.1430 c         1 MOL      0.433144
    124 O16        -5.6190   -2.5520   -0.6890 o         1 MOL     -0.378307
    125 C42        -4.3830   -3.5120    2.4820 c3        1 MOL     -0.265391
    126 O17        -4.9950   -2.2970    2.6440 oh        1 MOL     -0.202477
    127 H57        -3.0680   -2.0880    0.8200 hn        1 MOL      0.129284
    128 H58        -4.1580   -4.8710    0.8130 h1        1 MOL      0.044192
    129 H59        -3.3740   -3.2920    2.8450 h1        1 MOL      0.116395
    130 H60        -4.8530   -4.3200    3.0490 h1        1 MOL      0.116395
    131 H61        -5.1000   -2.2350    3.5910 ho        1 MOL      0.342826
    132 N12        -6.7570   -4.0880    0.5280 n         1 MOL     -0.527962
    133 C43        -8.0930   -3.6410    0.0560 c3        1 MOL      0.264358
    134 C44        -8.4580   -2.2760    0.6980 c         1 MOL      0.409168
    135 O18        -9.2900   -1.5790    0.0710 o         1 MOL     -0.512991
    136 C45        -9.0830   -4.7860    0.3170 c3        1 MOL     -0.361136
    137 H62        -6.7030   -4.8730    1.1630 hn        1 MOL      0.315706
    138 H63        -8.0750   -3.4210   -1.0120 h1        1 MOL      0.064206
    139 H64       -10.1160   -4.4550    0.1840 hc        1 MOL      0.108578
    140 H65        -8.8790   -5.5590   -0.4300 hc        1 MOL      0.108578
    141 H66        -8.8890   -5.2790    1.2660 hc        1 MOL      0.108578
    142 N13        -7.9190   -1.8910    1.8860 n         1 MOL     -0.408163
    143 C46        -8.0790   -0.5540    2.4800 c3        1 MOL      0.355037
    144 C47        -7.1980    0.5830    1.7910 c         1 MOL      0.239956
    145 O19        -7.7020    1.6800    1.5230 o         1 MOL     -0.499457
    146 C48        -7.8090   -0.7260    3.9270 c3        1 MOL     -0.241117
    147 H67        -7.1370   -2.4910    2.1350 hn        1 MOL      0.160715
    148 H68        -9.1010   -0.1990    2.3120 h1        1 MOL      0.044917
    149 H69        -8.5590   -1.4350    4.2840 hc        1 MOL      0.052345
    150 H70        -6.8090   -1.1260    4.1240 hc        1 MOL      0.052345
    151 H71        -7.9340    0.2540    4.3720 hc        1 MOL      0.052345
    152 N14        -5.9830    0.2470    1.4270 n         1 MOL      0.086450
    153 C49        -5.1970    1.2290    0.6080 c3        1 MOL     -0.193444
    154 C50        -5.8210    1.4380   -0.7830 c         1 MOL      0.499619
    155 O20        -5.8400    2.5370   -1.3310 o         1 MOL     -0.575766
    156 C51        -3.6840    0.8600    0.4240 c3        1 MOL      0.106435
    157 C52        -2.8680    0.8780    1.7960 c3        1 MOL      0.000221
    158 C53        -1.4480    0.4190    1.6800 c         1 MOL      0.622762
    159 O21        -1.0290   -0.6380    2.2780 o         1 MOL     -0.725709
    160 O22        -0.6530    1.1190    1.0270 o         1 MOL     -0.725709
    161 H72        -5.6420   -0.6710    1.6700 hn        1 MOL     -0.154021
    162 H73        -5.1660    2.1860    1.1270 h1        1 MOL      0.117951
    163 H74        -3.2230    1.6270   -0.1990 hc        1 MOL      0.011596
    164 H75        -3.6140   -0.1240   -0.0420 hc        1 MOL      0.011596
    165 H76        -3.3200    0.3340    2.6220 hc        1 MOL     -0.012919
    166 H77        -2.9830    1.8810    2.1970 hc        1 MOL     -0.012919
    167 N15        -6.3300    0.3370   -1.3170 n         1 MOL     -0.069679
    168 C54        -7.0870    0.4330   -2.5680 c3        1 MOL     -0.259392
    169 H78        -7.3530    1.4740   -2.7520 h1        1 MOL      0.101196
    170 H79        -6.4780    0.0640   -3.3920 h1        1 MOL      0.101196
    171 H80        -7.9950   -0.1650   -2.4900 h1        1 MOL      0.101196
    172 H81        -6.0530   -0.5510   -0.9310 hn        1 MOL      0.117467
    173 Ca1         1.5260   -0.0060    1.7440 Ca        1 MOL      1.707908
    174 O23         1.1730   -2.6190    2.3520 oh        1 MOL     -0.795035
    175 H82         0.3390   -3.0730    2.2320 ho        1 MOL      0.386733
    176 H83         1.6550   -3.1580    2.9720 ho        1 MOL      0.386733
    177 O24         1.4830   -0.7010    4.4060 oh        1 MOL     -0.795035
    178 H84         2.0030   -0.4050    5.1670 ho        1 MOL      0.386733
    179 H85         1.1350   -1.5490    4.6770 ho        1 MOL      0.386733
@<TRIPOS>BOND
     1    1    2 1   
     2    1    4 1   
     3    1    5 1   
     4    1    6 1   
     5    2    3 2   
     6    2    7 1   
     7    7    8 1   
     8    7   15 1   
     9    8    9 1   
    10    8   11 1   
    11    8   16 1   
    12    9   10 2   
    13    9   19 1   
    14   11   12 1   
    15   11   17 1   
    16   11   18 1   
    17   12   13 1   
    18   12   14 1   
    19   19   20 1   
    20   19   28 1   
    21   20   21 1   
    22   20   23 1   
    23   20   29 1   
    24   21   22 2   
    25   21   41 1   
    26   23   24 1   
    27   23   30 1   
    28   23   31 1   
    29   24   25 1   
    30   24   32 1   
    31   24   33 1   
    32   25   26 1   
    33   25   34 1   
    34   25   35 1   
    35   26   27 1   
    36   26   36 1   
    37   26   37 1   
    38   27   38 1   
    39   27   39 1   
    40   27   40 1   
    41   41   42 1   
    42   41   49 1   
    43   42   43 1   
    44   42   45 1   
    45   42   50 1   
    46   43   44 2   
    47   43   53 1   
    48   45   46 1   
    49   45   51 1   
    50   45   52 1   
    51   46   47 1   
    52   46   48 1   
    53   53   54 1   
    54   53   57 1   
    55   54   55 1   
    56   54   58 1   
    57   54   59 1   
    58   55   56 2   
    59   55   60 1   
    60   60   61 1   
    61   60   68 1   
    62   61   62 1   
    63   61   64 1   
    64   61   69 1   
    65   62   63 2   
    66   62   74 1   
    67   64   65 1   
    68   64   70 1   
    69   64   71 1   
    70   65   66 1   
    71   65   67 2   
    72   66   72 1   
    73   66   73 1   
    74   74   75 1   
    75   74   78 1   
    76   75   76 1   
    77   75   79 1   
    78   75   80 1   
    79   76   77 2   
    80   76   81 1   
    81   81   82 1   
    82   81   93 1   
    83   82   83 1   
    84   82   85 1   
    85   82   94 1   
    86   83   84 2   
    87   83  102 1   
    88   85   86 1   
    89   85   95 1   
    90   85   96 1   
    91   86   87 ar  
    92   86   88 ar  
    93   87   89 ar  
    94   87   97 1   
    95   88   90 ar  
    96   88   98 1   
    97   89   91 ar  
    98   89   99 1   
    99   90   91 ar  
   100   90  100 1   
   101   91   92 1   
   102   92  101 1   
   103  102  103 1   
   104  102  110 1   
   105  103  104 1   
   106  103  106 1   
   107  103  111 1   
   108  104  105 2   
   109  104  121 1   
   110  106  107 1   
   111  106  108 1   
   112  106  112 1   
   113  107  109 1   
   114  107  113 1   
   115  107  114 1   
   116  108  115 1   
   117  108  116 1   
   118  108  117 1   
   119  109  118 1   
   120  109  119 1   
   121  109  120 1   
   122  121  122 1   
   123  121  127 1   
   124  122  123 1   
   125  122  125 1   
   126  122  128 1   
   127  123  124 2   
   128  123  132 1   
   129  125  126 1   
   130  125  129 1   
   131  125  130 1   
   132  126  131 1   
   133  132  133 1   
   134  132  137 1   
   135  133  134 1   
   136  133  136 1   
   137  133  138 1   
   138  134  135 2   
   139  134  142 1   
   140  136  139 1   
   141  136  140 1   
   142  136  141 1   
   143  142  143 1   
   144  142  147 1   
   145  143  144 1   
   146  143  146 1   
   147  143  148 1   
   148  144  145 2   
   149  144  152 1   
   150  146  149 1   
   151  146  150 1   
   152  146  151 1   
   153  152  153 1   
   154  152  161 1   
   155  153  154 1   
   156  153  156 1   
   157  153  162 1   
   158  154  155 2   
   159  154  167 1   
   160  156  157 1   
   161  156  163 1   
   162  156  164 1   
   163  157  158 1   
   164  157  165 1   
   165  157  166 1   
   166  158  159 1   
   167  158  160 1   
   168  167  168 1   
   169  167  172 1   
   170  168  169 1   
   171  168  170 1   
   172  168  171 1   
   173  174  175 1   
   174  174  176 1   
   175  177  178 1   
   176  177  179 1   
@<TRIPOS>SUBSTRUCTURE
     1 MOL         1 TEMP              0 ****  ****    0 ROOT
