@<TRIPOS>MOLECULE
MOL
  183   181     1     0     0
SMALL
resp


@<TRIPOS>ATOM
      1 C1         -0.8110    2.1180    6.0510 c3        1 MOL     -0.387637
      2 C2         -1.1870    1.9790    4.5740 c         1 MOL      0.671157
      3 O1         -0.4480    2.3390    3.6780 o         1 MOL     -0.543057
      4 H1          0.1340    1.6080    6.2350 hc        1 MOL      0.092912
      5 H2         -0.7100    3.1740    6.3020 hc        1 MOL      0.092912
      6 H3         -1.5910    1.6710    6.6680 hc        1 MOL      0.092912
      7 N1         -2.4110    1.5340    4.2730 n         1 MOL     -0.534335
      8 C3         -2.8720    1.4350    2.8980 c3        1 MOL      0.119550
      9 C4         -3.4160    2.7960    2.4840 c         1 MOL      0.405360
     10 O2         -4.4670    3.2360    2.8670 o         1 MOL     -0.551108
     11 C5         -4.0150    0.4190    2.9550 c3        1 MOL     -0.290826
     12 C6         -4.5140    0.0940    1.5490 c         1 MOL      0.757358
     13 O3         -5.5660   -0.5580    1.5200 o         1 MOL     -0.661591
     14 O4         -3.9260    0.5960    0.5260 o         1 MOL     -0.661591
     15 H4         -2.9820    1.1890    5.0280 hn        1 MOL      0.315546
     16 H5         -2.1120    1.1170    2.1880 h1        1 MOL     -0.037602
     17 H6         -4.8250    0.7930    3.5780 hc        1 MOL      0.065243
     18 H7         -3.6020   -0.4930    3.3960 hc        1 MOL      0.065243
     19 N2         -2.6230    3.4790    1.7180 n         1 MOL     -0.033085
     20 C7         -2.8890    4.8610    1.2130 c3        1 MOL     -0.047611
     21 C8         -4.0010    4.8360    0.1240 c         1 MOL      0.374542
     22 O5         -4.9660    5.5560    0.1930 o         1 MOL     -0.558220
     23 C9         -1.5390    5.4380    0.6640 c3        1 MOL      0.022314
     24 C10        -0.4820    5.5550    1.7250 c3        1 MOL      0.016907
     25 C11        -1.7720    6.8350   -0.0160 c3        1 MOL     -0.222849
     26 C12        -1.0130    6.0610    3.0630 c3        1 MOL     -0.204405
     27 H8         -1.7520    3.0680    1.4000 hn        1 MOL      0.257197
     28 H9         -3.3100    5.5080    1.9770 h1        1 MOL      0.067644
     29 H10        -1.2090    4.7420   -0.1010 hc        1 MOL      0.012349
     30 H11         0.3610    6.2050    1.4910 hc        1 MOL      0.024327
     31 H12        -0.0270    4.6160    2.0450 hc        1 MOL      0.024327
     32 H13        -2.3030    7.5010    0.6710 hc        1 MOL      0.060043
     33 H14        -0.9430    7.4980   -0.2390 hc        1 MOL      0.060043
     34 H15        -2.3070    6.7080   -0.9560 hc        1 MOL      0.060043
     35 H16        -1.7110    5.3690    3.5460 hc        1 MOL      0.039038
     36 H17        -0.2090    6.0180    3.7940 hc        1 MOL      0.039038
     37 H18        -1.4850    7.0380    3.0280 hc        1 MOL      0.039038
     38 N3         -3.9310    3.9120   -0.8350 n         1 MOL     -0.268541
     39 C13        -4.8820    3.8620   -1.9800 c3        1 MOL      0.234589
     40 C14        -6.0120    2.8380   -1.7340 c         1 MOL      0.327084
     41 O6         -6.9670    2.8960   -2.5110 o         1 MOL     -0.550527
     42 C15        -4.1750    3.4180   -3.2750 c3        1 MOL     -0.370837
     43 C16        -3.4100    2.1180   -3.3750 c         1 MOL      0.803835
     44 O7         -2.6290    1.9140   -4.3540 o         1 MOL     -0.696499
     45 O8         -3.3900    1.3340   -2.3960 o         1 MOL     -0.696499
     46 H19        -3.2220    3.2080   -0.7440 hn        1 MOL      0.210332
     47 H20        -5.2890    4.8320   -2.2460 h1        1 MOL      0.055909
     48 H21        -3.3870    4.1510   -3.4700 hc        1 MOL      0.070380
     49 H22        -4.9250    3.5150   -4.0540 hc        1 MOL      0.070380
     50 N4         -5.9500    2.0420   -0.6760 n         1 MOL     -0.120424
     51 C17        -7.2300    1.6200   -0.0970 c3        1 MOL     -0.314106
     52 C18        -7.7760    0.2650   -0.5780 c         1 MOL      0.552531
     53 O9         -8.9290   -0.0140   -0.2340 o         1 MOL     -0.611973
     54 H23        -5.1260    1.9820   -0.0860 hn        1 MOL      0.225145
     55 H24        -8.0450    2.3190   -0.2500 h1        1 MOL      0.137617
     56 H25        -7.0840    1.5610    0.9810 h1        1 MOL      0.137617
     57 N5         -6.9400   -0.5260   -1.2600 n         1 MOL     -0.230238
     58 C19        -7.3310   -1.7790   -1.9550 c3        1 MOL     -0.061666
     59 C20        -7.4100   -2.9730   -0.9900 c         1 MOL      0.384451
     60 O10        -7.9640   -4.0300   -1.3400 o         1 MOL     -0.573873
     61 C21        -6.2430   -2.0370   -2.9910 c3        1 MOL     -0.094889
     62 C22        -4.7130   -1.8510   -2.6170 c         1 MOL      0.686199
     63 O11        -3.8250   -1.7510   -3.4290 o         1 MOL     -0.687058
     64 O12        -4.4760   -1.8890   -1.4070 o         1 MOL     -0.687058
     65 H26        -5.9510   -0.3420   -1.3480 hn        1 MOL      0.168417
     66 H27        -8.2880   -1.6950   -2.4580 h1        1 MOL      0.102438
     67 H28        -6.3760   -1.3570   -3.8250 hc        1 MOL      0.015089
     68 H29        -6.2980   -3.0560   -3.3790 hc        1 MOL      0.015089
     69 N6         -7.0730   -2.7390    0.2430 n         1 MOL     -0.083834
     70 C23        -6.9580   -3.6270    1.3420 c3        1 MOL     -0.110399
     71 C24        -5.6440   -4.4470    1.4720 c         1 MOL      0.553946
     72 O13        -5.7300   -5.5980    1.9780 o         1 MOL     -0.589974
     73 H30        -6.8160   -1.7780    0.4300 hn        1 MOL      0.237587
     74 H31        -7.8130   -4.3000    1.2980 h1        1 MOL      0.044261
     75 H32        -7.0360   -2.9820    2.2180 h1        1 MOL      0.044261
     76 N7         -4.5460   -3.9440    0.8930 n         1 MOL     -0.197789
     77 C25        -3.2030   -4.4330    1.1440 c3        1 MOL     -0.037071
     78 C26        -2.1040   -3.3330    1.2490 c         1 MOL      0.785919
     79 O14        -2.4830   -2.1380    1.2020 o         1 MOL     -0.710216
     80 C27        -2.8990   -5.5510    0.1500 c3        1 MOL     -0.009359
     81 C28        -3.1200   -5.3110   -1.3480 c3        1 MOL     -0.155466
     82 C29        -2.0340   -4.4520   -1.9860 c         1 MOL      0.609739
     83 N8         -1.7030   -4.7500   -3.2330 n         1 MOL     -0.761533
     84 O15        -1.5210   -3.4600   -1.4590 o         1 MOL     -0.631896
     85 H33        -4.6210   -3.0990    0.3510 hn        1 MOL      0.146849
     86 H34        -3.0870   -4.9170    2.1100 h1        1 MOL      0.032463
     87 H35        -3.6110   -6.3510    0.3800 hc        1 MOL     -0.000607
     88 H36        -1.9020   -5.9880    0.2470 hc        1 MOL     -0.000607
     89 H37        -4.1210   -4.9230   -1.5380 hc        1 MOL      0.073746
     90 H38        -3.1950   -6.2260   -1.9300 hc        1 MOL      0.073746
     91 H39        -2.1740   -5.4970   -3.7270 hn        1 MOL      0.365015
     92 H40        -0.9510   -4.1930   -3.5960 hn        1 MOL      0.365015
     93 N9         -0.9060   -3.6490    1.5980 n         1 MOL     -0.491244
     94 C30         0.2100   -2.7390    1.8390 c3        1 MOL      0.029162
     95 C31         1.4650   -3.1970    1.1020 c         1 MOL      0.470617
     96 O16         1.9890   -4.2730    1.3030 o         1 MOL     -0.595209
     97 C32         0.5220   -2.5920    3.3040 c3        1 MOL      0.196078
     98 C33         1.7630   -1.7900    3.6360 c3        1 MOL     -0.282133
     99 C34        -0.7230   -2.0310    3.9590 c3        1 MOL     -0.282133
    100 H41        -0.6970   -4.6180    1.7820 hn        1 MOL      0.288927
    101 H42         0.0720   -1.7160    1.4940 h1        1 MOL      0.079121
    102 H43         0.7590   -3.5840    3.6870 hc        1 MOL     -0.031576
    103 H44         2.6670   -1.9540    3.0450 hc        1 MOL      0.066428
    104 H45         1.5150   -0.7360    3.5180 hc        1 MOL      0.066428
    105 H46         1.9090   -1.7970    4.7160 hc        1 MOL      0.066428
    106 H47        -0.5460   -1.7700    5.0040 hc        1 MOL      0.066428
    107 H48        -0.9370   -1.1180    3.4160 hc        1 MOL      0.066428
    108 H49        -1.6270   -2.6570    3.9760 hc        1 MOL      0.066428
    109 N10         1.8990   -2.5070    0.0720 n         1 MOL     -0.107634
    110 C35         3.0140   -2.8680   -0.7980 c3        1 MOL      0.132627
    111 C36         4.3560   -2.2120   -0.2800 c         1 MOL      0.167661
    112 O17         4.3100   -1.4680    0.7220 o         1 MOL     -0.182478
    113 C37         2.7000   -2.5940   -2.2860 c3        1 MOL     -0.398060
    114 C38         3.0050   -1.1360   -2.6360 c         1 MOL      0.695803
    115 N11         2.0790   -0.2300   -2.4790 n         1 MOL     -0.716519
    116 O18         4.0160   -0.7450   -3.1430 o         1 MOL     -0.594785
    117 H50         1.4560   -1.6500   -0.2190 hn        1 MOL      0.033350
    118 H51         3.2200   -3.9350   -0.7320 h1        1 MOL      0.069700
    119 H52         1.6500   -2.7890   -2.4690 hc        1 MOL      0.129706
    120 H53         3.1700   -3.3450   -2.9290 hc        1 MOL      0.129706
    121 H54         1.1900   -0.3050   -2.0070 hn        1 MOL      0.367375
    122 H55         2.2870    0.7450   -2.6910 hn        1 MOL      0.367375
    123 N12         5.5340   -2.3840   -0.8990 n         1 MOL     -0.314775
    124 C39         6.8390   -2.0420   -0.2970 c3        1 MOL      0.149841
    125 C40         7.1200   -0.5860   -0.2760 c         1 MOL      0.726815
    126 O19         7.6230   -0.0880    0.6880 o         1 MOL     -0.540263
    127 C41         7.9700   -2.6790   -1.1690 c3        1 MOL     -0.181663
    128 C42         9.4360   -2.3540   -0.6900 ca        1 MOL      0.113616
    129 C43         9.8040   -2.6700    0.6200 ca        1 MOL     -0.304937
    130 C44        10.3230   -1.5880   -1.4820 ca        1 MOL     -0.304937
    131 C45        11.0530   -2.3170    1.1610 ca        1 MOL     -0.096046
    132 C46        11.5210   -1.0720   -0.8820 ca        1 MOL     -0.096046
    133 C47        11.9200   -1.5270    0.3860 ca        1 MOL      0.210992
    134 O20        13.1360   -1.1170    0.8900 oh        1 MOL     -0.505476
    135 H56         5.6220   -2.9870   -1.7100 hn        1 MOL      0.227044
    136 H57         6.7860   -2.5050    0.6910 h1        1 MOL      0.051345
    137 H58         7.9260   -2.2800   -2.1840 hc        1 MOL      0.056627
    138 H59         7.7620   -3.7420   -1.1550 hc        1 MOL      0.056627
    139 H60         9.1190   -3.2470    1.2320 ha        1 MOL      0.167735
    140 H61        10.1060   -1.4010   -2.5230 ha        1 MOL      0.167735
    141 H62        11.2670   -2.5660    2.1980 ha        1 MOL      0.113631
    142 H63        12.2230   -0.5230   -1.4750 ha        1 MOL      0.113631
    143 H64        13.5410   -0.4520    0.3300 ho        1 MOL      0.368610
    144 N13         6.5270    0.1600   -1.2260 n         1 MOL     -0.610258
    145 C48         6.4530    1.6600   -1.2070 c3        1 MOL      0.170003
    146 C49         5.5990    2.1030   -0.0680 c         1 MOL      0.263702
    147 O21         6.0130    3.0170    0.6160 o         1 MOL     -0.490342
    148 C50         6.0060    2.2700   -2.5930 c3        1 MOL      0.147722
    149 C51         6.3720    3.7830   -2.5430 c3        1 MOL     -0.335498
    150 C52         5.8870    4.5380   -3.7770 c         1 MOL      0.738518
    151 O22         6.3050    4.2910   -4.9500 o         1 MOL     -0.746592
    152 O23         5.0570    5.4660   -3.5830 o         1 MOL     -0.746592
    153 H65         6.0010   -0.3690   -1.9100 hn        1 MOL      0.238834
    154 H66         7.4160    2.0840   -0.9280 h1        1 MOL      0.055756
    155 H67         4.9810    1.9390   -2.7460 hc        1 MOL     -0.021070
    156 H68         6.6020    1.8980   -3.4300 hc        1 MOL     -0.021070
    157 H69         7.4610    3.8240   -2.4670 hc        1 MOL      0.055087
    158 H70         5.9650    4.1850   -1.6100 hc        1 MOL      0.055087
    159 N14         4.4830    1.4200    0.2510 n         1 MOL     -0.063427
    160 C53         3.6420    1.7090    1.4230 c3        1 MOL     -0.108464
    161 C54         4.2190    1.2760    2.7090 c         1 MOL      0.431149
    162 O24         3.9660    1.8960    3.7380 o         1 MOL     -0.566358
    163 C55         2.1630    1.1980    1.1890 c3        1 MOL      0.071315
    164 C56         1.4310    1.9130    0.0480 c3        1 MOL      0.010806
    165 C57         0.1520    1.0680   -0.1950 c         1 MOL      0.688823
    166 O25        -0.9610    1.6610   -0.3630 o         1 MOL     -0.704595
    167 O26         0.2090   -0.1710   -0.4120 o         1 MOL     -0.704595
    168 H71         4.0850    0.7710   -0.4150 hn        1 MOL      0.186709
    169 H72         3.5400    2.7950    1.3890 h1        1 MOL      0.093383
    170 H73         1.6360    1.3700    2.1320 hc        1 MOL      0.023123
    171 H74         2.2630    0.1270    1.0310 hc        1 MOL      0.023123
    172 H75         2.1010    1.9320   -0.8130 hc        1 MOL     -0.029367
    173 H76         1.0000    2.8470    0.4090 hc        1 MOL     -0.029367
    174 N15         5.1250    0.2780    2.6530 n         1 MOL      0.089959
    175 C58         5.8420   -0.2960    3.7830 c3        1 MOL     -0.222618
    176 H77         5.2920   -0.0950    4.7020 h1        1 MOL      0.071263
    177 H78         5.9360   -1.3730    3.6440 h1        1 MOL      0.071263
    178 H79         6.8340    0.1500    3.8480 h1        1 MOL      0.071263
    179 H80         5.1480   -0.2050    1.7690 hn        1 MOL     -0.148520
    180 Ca1        -2.3200   -0.5120   -1.0540 Ca        1 MOL      1.730944
    181 O27        -1.0680    0.1000   -3.5340 oh        1 MOL     -0.936481
    182 H81        -1.7340    0.6840   -3.9000 ho        1 MOL      0.412715
    183 H82        -0.5310   -0.1410   -4.2930 ho        1 MOL      0.412715
@<TRIPOS>BOND
     1    1    2 1   
     2    1    4 1   
     3    1    5 1   
     4    1    6 1   
     5    2    3 2   
     6    2    7 1   
     7    7    8 1   
     8    7   15 1   
     9    8    9 1   
    10    8   11 1   
    11    8   16 1   
    12    9   10 2   
    13    9   19 1   
    14   11   12 1   
    15   11   17 1   
    16   11   18 1   
    17   12   13 1   
    18   12   14 1   
    19   19   20 1   
    20   19   27 1   
    21   20   21 1   
    22   20   23 1   
    23   20   28 1   
    24   21   22 2   
    25   21   38 1   
    26   23   24 1   
    27   23   25 1   
    28   23   29 1   
    29   24   26 1   
    30   24   30 1   
    31   24   31 1   
    32   25   32 1   
    33   25   33 1   
    34   25   34 1   
    35   26   35 1   
    36   26   36 1   
    37   26   37 1   
    38   38   39 1   
    39   38   46 1   
    40   39   40 1   
    41   39   42 1   
    42   39   47 1   
    43   40   41 2   
    44   40   50 1   
    45   42   43 1   
    46   42   48 1   
    47   42   49 1   
    48   43   44 1   
    49   43   45 1   
    50   50   51 1   
    51   50   54 1   
    52   51   52 1   
    53   51   55 1   
    54   51   56 1   
    55   52   53 2   
    56   52   57 1   
    57   57   58 1   
    58   57   65 1   
    59   58   59 1   
    60   58   61 1   
    61   58   66 1   
    62   59   60 2   
    63   59   69 1   
    64   61   62 1   
    65   61   67 1   
    66   61   68 1   
    67   62   63 1   
    68   62   64 1   
    69   69   70 1   
    70   69   73 1   
    71   70   71 1   
    72   70   74 1   
    73   70   75 1   
    74   71   72 2   
    75   71   76 1   
    76   76   77 1   
    77   76   85 1   
    78   77   78 1   
    79   77   80 1   
    80   77   86 1   
    81   78   79 2   
    82   78   93 1   
    83   80   81 1   
    84   80   87 1   
    85   80   88 1   
    86   81   82 1   
    87   81   89 1   
    88   81   90 1   
    89   82   83 1   
    90   82   84 2   
    91   83   91 1   
    92   83   92 1   
    93   93   94 1   
    94   93  100 1   
    95   94   95 1   
    96   94   97 1   
    97   94  101 1   
    98   95   96 2   
    99   95  109 1   
   100   97   98 1   
   101   97   99 1   
   102   97  102 1   
   103   98  103 1   
   104   98  104 1   
   105   98  105 1   
   106   99  106 1   
   107   99  107 1   
   108   99  108 1   
   109  109  110 1   
   110  109  117 1   
   111  110  111 1   
   112  110  113 1   
   113  110  118 1   
   114  111  112 2   
   115  111  123 1   
   116  113  114 1   
   117  113  119 1   
   118  113  120 1   
   119  114  115 1   
   120  114  116 2   
   121  115  121 1   
   122  115  122 1   
   123  123  124 1   
   124  123  135 1   
   125  124  125 1   
   126  124  127 1   
   127  124  136 1   
   128  125  126 2   
   129  125  144 1   
   130  127  128 1   
   131  127  137 1   
   132  127  138 1   
   133  128  129 ar  
   134  128  130 ar  
   135  129  131 ar  
   136  129  139 1   
   137  130  132 ar  
   138  130  140 1   
   139  131  133 ar  
   140  131  141 1   
   141  132  133 ar  
   142  132  142 1   
   143  133  134 1   
   144  134  143 1   
   145  144  145 1   
   146  144  153 1   
   147  145  146 1   
   148  145  148 1   
   149  145  154 1   
   150  146  147 2   
   151  146  159 1   
   152  148  149 1   
   153  148  155 1   
   154  148  156 1   
   155  149  150 1   
   156  149  157 1   
   157  149  158 1   
   158  150  151 1   
   159  150  152 1   
   160  159  160 1   
   161  159  168 1   
   162  160  161 1   
   163  160  163 1   
   164  160  169 1   
   165  161  162 2   
   166  161  174 1   
   167  163  164 1   
   168  163  170 1   
   169  163  171 1   
   170  164  165 1   
   171  164  172 1   
   172  164  173 1   
   173  165  166 1   
   174  165  167 1   
   175  174  175 1   
   176  174  179 1   
   177  175  176 1   
   178  175  177 1   
   179  175  178 1   
   180  181  182 1   
   181  181  183 1   
@<TRIPOS>SUBSTRUCTURE
     1 MOL         1 TEMP              0 ****  ****    0 ROOT
