@<TRIPOS>MOLECULE
MOL
  183   181     1     0     0
SMALL
resp


@<TRIPOS>ATOM
      1 C1         -1.1550    1.9110    6.3870 c3        1 MOL     -0.338994
      2 C2         -1.4320    1.6350    4.9230 c         1 MOL      0.772686
      3 O1         -0.6000    1.2670    4.1440 o         1 MOL     -0.556536
      4 H1         -1.8960    1.3970    7.0000 hc        1 MOL      0.077270
      5 H2         -0.1590    1.5510    6.6440 hc        1 MOL      0.077270
      6 H3         -1.2120    2.9840    6.5720 hc        1 MOL      0.077270
      7 N1         -2.6330    1.8720    4.5010 n         1 MOL     -0.675384
      8 C3         -2.9870    2.0780    3.1020 c3        1 MOL      0.404930
      9 C4         -3.1780    3.5560    2.5980 c         1 MOL      0.281152
     10 O2         -3.9690    4.2710    3.1950 o         1 MOL     -0.561133
     11 C5         -4.2850    1.2230    2.7870 c3        1 MOL     -0.256404
     12 C6         -4.7450    1.0740    1.2720 c         1 MOL      0.719982
     13 O3         -5.8130    0.4640    1.0280 o         1 MOL     -0.655225
     14 O4         -4.0010    1.5110    0.3330 o         1 MOL     -0.655225
     15 H4         -3.4130    2.0550    5.1200 hn        1 MOL      0.306792
     16 H5         -2.1490    1.6850    2.5250 h1        1 MOL     -0.022266
     17 H6         -5.1340    1.6210    3.3370 hc        1 MOL      0.054355
     18 H7         -4.1050    0.1780    3.0400 hc        1 MOL      0.054355
     19 N2         -2.6290    3.8070    1.4340 n         1 MOL      0.031902
     20 C7         -2.6470    5.0880    0.6790 c3        1 MOL     -0.000217
     21 C8         -3.5350    4.9530   -0.5180 c         1 MOL      0.413274
     22 O5         -4.5300    5.7450   -0.6440 o         1 MOL     -0.562389
     23 C9         -1.2030    5.5010    0.3160 c3        1 MOL      0.265638
     24 C10        -0.4440    5.8250    1.6170 c3        1 MOL     -0.000396
     25 C11        -1.2020    6.7070   -0.6610 c3        1 MOL     -0.397327
     26 C12         1.0630    6.0730    1.5130 c3        1 MOL     -0.157782
     27 H8         -2.0590    3.0620    1.0380 hn        1 MOL      0.016136
     28 H9         -3.0230    5.8480    1.3540 h1        1 MOL      0.034778
     29 H10        -0.6860    4.6510   -0.1280 hc        1 MOL     -0.032642
     30 H11        -0.5840    4.9150    2.1920 hc        1 MOL     -0.009165
     31 H12        -0.9320    6.6130    2.1960 hc        1 MOL     -0.009165
     32 H13        -1.3600    6.5440   -1.7320 hc        1 MOL      0.086392
     33 H14        -1.8660    7.5100   -0.3240 hc        1 MOL      0.086392
     34 H15        -0.1750    7.0690   -0.6980 hc        1 MOL      0.086392
     35 H16         1.4700    5.1990    0.9890 hc        1 MOL      0.038736
     36 H17         1.3060    6.9120    0.8700 hc        1 MOL      0.038736
     37 H18         1.5300    6.1590    2.4920 hc        1 MOL      0.038736
     38 N3         -3.2550    4.0330   -1.3970 n         1 MOL     -0.238363
     39 C13        -3.9290    3.8880   -2.7000 c3        1 MOL     -0.104283
     40 C14        -5.3360    3.2250   -2.6500 c         1 MOL      0.474062
     41 O6         -6.1040    3.3360   -3.5990 o         1 MOL     -0.584904
     42 C15        -3.0290    3.1940   -3.7760 c3        1 MOL     -0.122224
     43 C16        -2.5880    1.8160   -3.3030 c         1 MOL      0.731712
     44 O7         -1.4200    1.5720   -2.9780 o         1 MOL     -0.750815
     45 O8         -3.4600    0.9900   -2.9580 o         1 MOL     -0.750815
     46 H19        -2.4140    3.4950   -1.2090 hn        1 MOL      0.228767
     47 H20        -4.2730    4.8580   -3.0500 h1        1 MOL      0.111776
     48 H21        -2.1540    3.8390   -3.9280 hc        1 MOL      0.044650
     49 H22        -3.4050    3.1920   -4.8010 hc        1 MOL      0.044650
     50 N4         -5.7800    2.5430   -1.5960 n         1 MOL     -0.038405
     51 C17        -7.1500    2.2210   -1.2060 c3        1 MOL     -0.365990
     52 C18        -7.5970    0.7380   -1.4170 c         1 MOL      0.669190
     53 O9         -8.7660    0.4350   -1.2510 o         1 MOL     -0.625456
     54 H23        -5.1020    2.1550   -0.9540 hn        1 MOL      0.107165
     55 H24        -7.9300    2.8500   -1.6520 h1        1 MOL      0.134420
     56 H25        -7.2260    2.3300   -0.1290 h1        1 MOL      0.134420
     57 N5         -6.7050   -0.1350   -1.8470 n         1 MOL     -0.409215
     58 C19        -7.0750   -1.5600   -1.9990 c3        1 MOL      0.103076
     59 C20        -7.1800   -2.4490   -0.7520 c         1 MOL      0.411970
     60 O10        -7.4990   -3.6620   -0.7940 o         1 MOL     -0.553219
     61 C21        -6.0730   -2.2890   -2.9620 c3        1 MOL     -0.204113
     62 C22        -4.6460   -2.3200   -2.4440 c         1 MOL      0.768693
     63 O11        -4.3320   -1.6500   -1.4640 o         1 MOL     -0.711623
     64 O12        -3.7820   -3.1130   -2.9770 o         1 MOL     -0.711623
     65 H26        -5.7260    0.1190   -1.8510 hn        1 MOL      0.235193
     66 H27        -8.0770   -1.5210   -2.4460 h1        1 MOL      0.077821
     67 H28        -6.1100   -1.7230   -3.8850 hc        1 MOL      0.045598
     68 H29        -6.4430   -3.3140   -3.1150 hc        1 MOL      0.045598
     69 N6         -6.9880   -1.8170    0.4350 n         1 MOL     -0.239250
     70 C23        -6.9890   -2.4960    1.7170 c3        1 MOL     -0.166067
     71 C24        -5.7240   -3.3210    2.0540 c         1 MOL      0.484034
     72 O13        -5.7570   -4.0600    3.0270 o         1 MOL     -0.591316
     73 H30        -6.6480   -0.8660    0.3410 hn        1 MOL      0.243401
     74 H31        -7.8530   -3.1600    1.7300 h1        1 MOL      0.095885
     75 H32        -7.1180   -1.8810    2.6030 h1        1 MOL      0.095885
     76 N7         -4.6790   -3.1600    1.2630 n         1 MOL     -0.173251
     77 C25        -3.4240   -3.9960    1.4070 c3        1 MOL     -0.042739
     78 C26        -2.2730   -2.9120    1.5220 c         1 MOL      0.614815
     79 O14        -2.4100   -1.7980    1.0340 o         1 MOL     -0.660704
     80 C27        -3.1270   -4.8910    0.1430 c3        1 MOL      0.205672
     81 C28        -4.2320   -5.8880   -0.2470 c3        1 MOL     -0.177090
     82 C29        -3.8490   -6.5470   -1.5710 c         1 MOL      0.572698
     83 N8         -3.9750   -5.8850   -2.7410 n         1 MOL     -0.717932
     84 O15        -3.3300   -7.6360   -1.6310 o         1 MOL     -0.594715
     85 H33        -4.7170   -2.4090    0.5870 hn        1 MOL      0.185535
     86 H34        -3.4590   -4.5440    2.3400 h1        1 MOL      0.052453
     87 H35        -2.2230   -5.4760    0.3240 hc        1 MOL     -0.003973
     88 H36        -2.8790   -4.2740   -0.7280 hc        1 MOL     -0.003973
     89 H37        -5.1980   -5.4180   -0.4420 hc        1 MOL      0.041882
     90 H38        -4.3000   -6.6560    0.5200 hc        1 MOL      0.041882
     91 H39        -4.1590   -4.8900   -2.7600 hn        1 MOL      0.331268
     92 H40        -3.8490   -6.3970   -3.5960 hn        1 MOL      0.331268
     93 N9         -1.1830   -3.3060    2.1300 n         1 MOL     -0.590264
     94 C30         0.0590   -2.4870    2.2470 c3        1 MOL      0.410860
     95 C31         1.0830   -3.1450    1.3270 c         1 MOL      0.280685
     96 O16         1.2050   -4.3750    1.4320 o         1 MOL     -0.560315
     97 C32         0.5140   -2.4550    3.7360 c3        1 MOL      0.304868
     98 C33         1.6330   -1.4180    3.8430 c3        1 MOL     -0.355026
     99 C34        -0.6340   -2.1540    4.6700 c3        1 MOL     -0.355026
    100 H41        -1.0590   -4.2700    2.3990 hn        1 MOL      0.287445
    101 H42        -0.0330   -1.4500    1.8960 h1        1 MOL      0.000100
    102 H43         0.9530   -3.4190    3.9820 hc        1 MOL     -0.060900
    103 H44         2.4520   -1.7000    3.1880 hc        1 MOL      0.069975
    104 H45         1.1840   -0.4510    3.5860 hc        1 MOL      0.069975
    105 H46         2.0680   -1.2660    4.8340 hc        1 MOL      0.069975
    106 H47        -0.1530   -2.0170    5.6360 hc        1 MOL      0.069975
    107 H48        -1.0010   -1.2020    4.3080 hc        1 MOL      0.069975
    108 H49        -1.3290   -2.9890    4.8060 hc        1 MOL      0.069975
    109 N10         1.7920   -2.3840    0.5110 n         1 MOL     -0.219227
    110 C35         2.9070   -2.9460   -0.3180 c3        1 MOL      0.238336
    111 C36         4.2680   -2.2900    0.1220 c         1 MOL      0.226540
    112 O17         4.3360   -1.4360    0.9820 o         1 MOL     -0.276502
    113 C37         2.5530   -2.7830   -1.8220 c3        1 MOL     -0.322814
    114 C38         3.0040   -1.4610   -2.3950 c         1 MOL      0.646701
    115 N11         2.2590   -0.3720   -2.3040 n         1 MOL     -0.646408
    116 O18         4.0330   -1.5320   -3.0920 o         1 MOL     -0.603547
    117 H50         1.6090   -1.3960    0.4330 hn        1 MOL      0.171788
    118 H51         2.9950   -3.9990   -0.0630 h1        1 MOL      0.044347
    119 H52         1.5190   -2.9370   -2.1330 hc        1 MOL      0.107179
    120 H53         3.0920   -3.6280   -2.2570 hc        1 MOL      0.107179
    121 H54         1.4820   -0.2910   -1.6690 hn        1 MOL      0.345225
    122 H55         2.5850    0.5180   -2.6560 hn        1 MOL      0.345225
    123 N12         5.3760   -2.6050   -0.6160 n         1 MOL     -0.375457
    124 C39         6.7030   -1.9780   -0.3810 c3        1 MOL      0.176231
    125 C40         6.5930   -0.4500   -0.4780 c         1 MOL      0.808472
    126 O19         7.0580    0.2470    0.4760 o         1 MOL     -0.610953
    127 C41         7.8420   -2.5250   -1.2290 c3        1 MOL     -0.175290
    128 C42         9.2350   -2.1950   -0.6590 ca        1 MOL     -0.046110
    129 C43         9.7660   -2.9940    0.4480 ca        1 MOL     -0.060973
    130 C44         9.8690   -1.0330   -1.0330 ca        1 MOL     -0.060973
    131 C45        11.0330   -2.6990    0.9800 ca        1 MOL     -0.383267
    132 C46        11.0920   -0.6920   -0.4440 ca        1 MOL     -0.383267
    133 C47        11.6640   -1.4840    0.5900 ca        1 MOL      0.483913
    134 O20        12.9270   -1.2670    1.0530 oh        1 MOL     -0.586448
    135 H56         5.3850   -3.4010   -1.2370 hn        1 MOL      0.257910
    136 H57         6.9930   -2.2820    0.6250 h1        1 MOL      0.000191
    137 H58         7.7410   -2.1420   -2.2450 hc        1 MOL      0.050744
    138 H59         7.6760   -3.6080   -1.1540 hc        1 MOL      0.050744
    139 H60         9.1390   -3.8490    0.6450 ha        1 MOL      0.130130
    140 H61         9.4600   -0.3850   -1.7990 ha        1 MOL      0.130130
    141 H62        11.5490   -3.2940    1.7170 ha        1 MOL      0.174702
    142 H63        11.5120    0.2520   -0.7640 ha        1 MOL      0.174702
    143 H64        13.4200   -0.7070    0.4400 ho        1 MOL      0.397976
    144 N13         5.8400    0.0250   -1.4860 n         1 MOL     -0.564005
    145 C48         5.6830    1.4990   -1.6380 c3        1 MOL     -0.023886
    146 C49         4.9080    2.1950   -0.5410 c         1 MOL      0.390757
    147 O21         4.7620    3.4300   -0.6140 o         1 MOL     -0.517586
    148 C50         5.1640    1.8130   -3.0510 c3        1 MOL     -0.075526
    149 C51         6.1950    1.4760   -4.1460 c3        1 MOL     -0.217062
    150 C52         7.3490    2.4070   -4.2450 c         1 MOL      0.708682
    151 O22         8.4450    1.8870   -4.3580 o         1 MOL     -0.734644
    152 O23         7.1440    3.7010   -4.2920 o         1 MOL     -0.734644
    153 H65         5.4280   -0.6260   -2.1540 hn        1 MOL      0.277623
    154 H66         6.6360    2.0090   -1.6760 h1        1 MOL      0.156658
    155 H67         4.7730    2.8300   -3.0610 hc        1 MOL      0.034365
    156 H68         4.3130    1.1520   -3.2490 hc        1 MOL      0.034365
    157 H69         5.8110    1.3160   -5.1560 hc        1 MOL      0.055335
    158 H70         6.4320    0.4390   -3.9340 hc        1 MOL      0.055335
    159 N14         4.2970    1.5040    0.4020 n         1 MOL     -0.079008
    160 C53         3.6980    2.0950    1.6000 c3        1 MOL      0.010086
    161 C54         4.3590    1.7960    2.8590 c         1 MOL      0.409997
    162 O24         4.4540    2.6790    3.7500 o         1 MOL     -0.569902
    163 C55         2.2700    1.5050    1.6450 c3        1 MOL      0.046871
    164 C56         1.3270    2.1520    0.5800 c3        1 MOL     -0.124181
    165 C57         0.1480    1.2360    0.1090 c         1 MOL      0.864458
    166 O25        -1.0140    1.7290    0.1910 o         1 MOL     -0.778692
    167 O26         0.3530    0.0710   -0.3660 o         1 MOL     -0.778692
    168 H71         4.3750    0.5000    0.4370 hn        1 MOL      0.009633
    169 H72         3.6120    3.1710    1.4990 h1        1 MOL      0.074677
    170 H73         1.8670    1.6630    2.6410 hc        1 MOL     -0.007145
    171 H74         2.2150    0.4200    1.6780 hc        1 MOL     -0.007145
    172 H75         1.9860    2.4710   -0.2180 hc        1 MOL      0.039965
    173 H76         0.9100    3.0570    1.0330 hc        1 MOL      0.039965
    174 N15         5.1330    0.7130    2.9350 n         1 MOL      0.021294
    175 C58         5.8090    0.1840    4.0800 c3        1 MOL     -0.257664
    176 H77         5.0740   -0.1790    4.8000 h1        1 MOL      0.086858
    177 H78         6.4530   -0.6400    3.7740 h1        1 MOL      0.086858
    178 H79         6.4120    0.9660    4.5400 h1        1 MOL      0.086858
    179 H80         5.2090    0.1460    2.0960 hn        1 MOL      0.016208
    180 Ca1        -2.4000   -0.0160   -0.9640 Ca        1 MOL      1.736613
    181 O27        -1.4900   -1.9760   -2.3770 oh        1 MOL     -0.922673
    182 H81        -2.2180   -2.5890   -2.4650 ho        1 MOL      0.426642
    183 H82        -1.1640   -1.8550   -3.2700 ho        1 MOL      0.426642
@<TRIPOS>BOND
     1    1    2 1   
     2    1    4 1   
     3    1    5 1   
     4    1    6 1   
     5    2    3 2   
     6    2    7 1   
     7    7    8 1   
     8    7   15 1   
     9    8    9 1   
    10    8   11 1   
    11    8   16 1   
    12    9   10 2   
    13    9   19 1   
    14   11   12 1   
    15   11   17 1   
    16   11   18 1   
    17   12   13 1   
    18   12   14 1   
    19   19   20 1   
    20   19   27 1   
    21   20   21 1   
    22   20   23 1   
    23   20   28 1   
    24   21   22 2   
    25   21   38 1   
    26   23   24 1   
    27   23   25 1   
    28   23   29 1   
    29   24   26 1   
    30   24   30 1   
    31   24   31 1   
    32   25   32 1   
    33   25   33 1   
    34   25   34 1   
    35   26   35 1   
    36   26   36 1   
    37   26   37 1   
    38   38   39 1   
    39   38   46 1   
    40   39   40 1   
    41   39   42 1   
    42   39   47 1   
    43   40   41 2   
    44   40   50 1   
    45   42   43 1   
    46   42   48 1   
    47   42   49 1   
    48   43   44 1   
    49   43   45 1   
    50   50   51 1   
    51   50   54 1   
    52   51   52 1   
    53   51   55 1   
    54   51   56 1   
    55   52   53 2   
    56   52   57 1   
    57   57   58 1   
    58   57   65 1   
    59   58   59 1   
    60   58   61 1   
    61   58   66 1   
    62   59   60 2   
    63   59   69 1   
    64   61   62 1   
    65   61   67 1   
    66   61   68 1   
    67   62   63 1   
    68   62   64 1   
    69   69   70 1   
    70   69   73 1   
    71   70   71 1   
    72   70   74 1   
    73   70   75 1   
    74   71   72 2   
    75   71   76 1   
    76   76   77 1   
    77   76   85 1   
    78   77   78 1   
    79   77   80 1   
    80   77   86 1   
    81   78   79 2   
    82   78   93 1   
    83   80   81 1   
    84   80   87 1   
    85   80   88 1   
    86   81   82 1   
    87   81   89 1   
    88   81   90 1   
    89   82   83 1   
    90   82   84 2   
    91   83   91 1   
    92   83   92 1   
    93   93   94 1   
    94   93  100 1   
    95   94   95 1   
    96   94   97 1   
    97   94  101 1   
    98   95   96 2   
    99   95  109 1   
   100   97   98 1   
   101   97   99 1   
   102   97  102 1   
   103   98  103 1   
   104   98  104 1   
   105   98  105 1   
   106   99  106 1   
   107   99  107 1   
   108   99  108 1   
   109  109  110 1   
   110  109  117 1   
   111  110  111 1   
   112  110  113 1   
   113  110  118 1   
   114  111  112 2   
   115  111  123 1   
   116  113  114 1   
   117  113  119 1   
   118  113  120 1   
   119  114  115 1   
   120  114  116 2   
   121  115  121 1   
   122  115  122 1   
   123  123  124 1   
   124  123  135 1   
   125  124  125 1   
   126  124  127 1   
   127  124  136 1   
   128  125  126 2   
   129  125  144 1   
   130  127  128 1   
   131  127  137 1   
   132  127  138 1   
   133  128  129 ar  
   134  128  130 ar  
   135  129  131 ar  
   136  129  139 1   
   137  130  132 ar  
   138  130  140 1   
   139  131  133 ar  
   140  131  141 1   
   141  132  133 ar  
   142  132  142 1   
   143  133  134 1   
   144  134  143 1   
   145  144  145 1   
   146  144  153 1   
   147  145  146 1   
   148  145  148 1   
   149  145  154 1   
   150  146  147 2   
   151  146  159 1   
   152  148  149 1   
   153  148  155 1   
   154  148  156 1   
   155  149  150 1   
   156  149  157 1   
   157  149  158 1   
   158  150  151 1   
   159  150  152 1   
   160  159  160 1   
   161  159  168 1   
   162  160  161 1   
   163  160  163 1   
   164  160  169 1   
   165  161  162 2   
   166  161  174 1   
   167  163  164 1   
   168  163  170 1   
   169  163  171 1   
   170  164  165 1   
   171  164  172 1   
   172  164  173 1   
   173  165  166 1   
   174  165  167 1   
   175  174  175 1   
   176  174  179 1   
   177  175  176 1   
   178  175  177 1   
   179  175  178 1   
   180  181  182 1   
   181  181  183 1   
@<TRIPOS>SUBSTRUCTURE
     1 MOL         1 TEMP              0 ****  ****    0 ROOT
