@<TRIPOS>MOLECULE
MOL
  182   178     1     0     0
SMALL
resp


@<TRIPOS>ATOM
      1 C1          2.2360    2.6040    5.5250 c3        1 MOL     -0.292744
      2 C2          1.4500    2.5990    4.2160 c         1 MOL      0.733542
      3 O1          1.9710    2.9780    3.1470 o         1 MOL     -0.613163
      4 H1          3.0350    3.3430    5.4660 hc        1 MOL      0.075893
      5 H2          1.5690    2.8550    6.3500 hc        1 MOL      0.075893
      6 H3          2.6680    1.6170    5.6940 hc        1 MOL      0.075893
      7 N1          0.1920    2.1740    4.3250 n         1 MOL     -0.546978
      8 C3         -0.6320    2.0600    3.1770 c3        1 MOL     -0.067911
      9 C4         -1.0530    3.3250    2.5180 c         1 MOL      0.593654
     10 O2         -1.7750    4.1430    3.0440 o         1 MOL     -0.547997
     11 C5         -1.7790    1.2130    3.5990 c3        1 MOL      0.081863
     12 C6         -2.6630    0.7890    2.3950 c         1 MOL      0.665016
     13 O3         -2.2810    1.0460    1.2240 o         1 MOL     -0.729867
     14 O4         -3.7990    0.3060    2.6720 o         1 MOL     -0.729867
     15 H4         -0.2390    1.9770    5.2220 hn        1 MOL      0.317954
     16 H5         -0.1050    1.4700    2.4240 h1        1 MOL      0.071158
     17 H6         -2.4650    1.7470    4.2610 hc        1 MOL     -0.014046
     18 H7         -1.4200    0.2970    4.0720 hc        1 MOL     -0.014046
     19 N2         -0.5770    3.4810    1.2370 n         1 MOL     -0.061192
     20 C7         -0.5230    4.7570    0.4200 c3        1 MOL     -0.421642
     21 C8         -1.9040    5.3070    0.1870 c         1 MOL      0.739619
     22 O5         -2.1330    6.5190    0.1260 o         1 MOL     -0.607213
     23 C9          0.2000    4.3540   -0.9160 c3        1 MOL      0.300997
     24 C10         0.5460    5.5240   -1.8100 c3        1 MOL      0.037626
     25 C11         0.8840    4.9860   -3.1510 c3        1 MOL     -0.027870
     26 C12         1.1540    6.0440   -4.1560 c3        1 MOL     -0.051223
     27 N3         -0.0530    6.7450   -4.6530 n4        1 MOL     -0.316188
     28 H8         -0.0550    2.7100    0.8400 hn        1 MOL      0.151651
     29 H9          0.1780    5.4920    0.8330 h1        1 MOL      0.122621
     30 H10        -0.5710    3.7870   -1.4310 hc        1 MOL     -0.074746
     31 H11         1.0330    3.6600   -0.7950 hc        1 MOL     -0.074746
     32 H12         1.2110    6.2070   -1.2850 hc        1 MOL     -0.008016
     33 H13        -0.3890    6.0640   -1.9630 hc        1 MOL     -0.008016
     34 H14         0.1840    4.3090   -3.6230 hc        1 MOL      0.038885
     35 H15         1.8720    4.5330   -3.0200 hc        1 MOL      0.038885
     36 H16         1.6410    5.5180   -4.9760 hx        1 MOL      0.098333
     37 H17         1.8910    6.6740   -3.6470 hx        1 MOL      0.098333
     38 H18         0.2480    7.4390   -5.3160 hn        1 MOL      0.324449
     39 H19        -0.7560    6.0960   -4.9530 hn        1 MOL      0.324449
     40 H20        -0.4240    7.3060   -3.8980 hn        1 MOL      0.324449
     41 N4         -2.8440    4.4120    0.0370 n         1 MOL     -0.497346
     42 C13        -4.1410    4.6910   -0.6310 c3        1 MOL      0.106238
     43 C14        -5.3330    4.0290    0.0290 c         1 MOL      0.472283
     44 O6         -6.4520    4.3410   -0.3030 o         1 MOL     -0.521759
     45 C15        -4.0600    4.2700   -2.1350 c3        1 MOL     -0.246003
     46 C16        -3.5070    2.8730   -2.4410 c         1 MOL      0.879731
     47 O7         -3.3310    2.5730   -3.6200 o         1 MOL     -0.749297
     48 O8         -3.1340    2.1080   -1.5410 o         1 MOL     -0.749297
     49 H21        -2.6040    3.4280    0.1530 hn        1 MOL      0.194217
     50 H22        -4.3630    5.7550   -0.5680 h1        1 MOL      0.092068
     51 H23        -3.4010    5.0080   -2.5920 hc        1 MOL      0.042313
     52 H24        -5.0610    4.3320   -2.5640 hc        1 MOL      0.042313
     53 N5         -5.0950    3.1320    1.0340 n         1 MOL     -0.183012
     54 C17        -6.0640    2.4390    1.8530 c3        1 MOL     -0.239757
     55 C18        -6.7300    1.2230    1.1840 c         1 MOL      0.533483
     56 O9         -7.8980    0.8420    1.5420 o         1 MOL     -0.598488
     57 H25        -4.1390    3.0290    1.3480 hn        1 MOL      0.204342
     58 H26        -6.7800    3.1830    2.2140 h1        1 MOL      0.137553
     59 H27        -5.5360    2.0380    2.7090 h1        1 MOL      0.137553
     60 N6         -6.0750    0.5340    0.2370 n         1 MOL     -0.124858
     61 C19        -6.5540   -0.5910   -0.5460 c3        1 MOL      0.020854
     62 C20        -6.2960   -1.9640    0.1560 c         1 MOL      0.412965
     63 O10        -6.4370   -3.0440   -0.4140 o         1 MOL     -0.484566
     64 C21        -5.8440   -0.4700   -1.9340 c3        1 MOL     -0.348036
     65 C22        -4.7560   -1.5730   -2.0170 c         1 MOL      0.547003
     66 N7         -4.8060   -2.5410   -2.8490 n         1 MOL     -0.657592
     67 O11        -3.7810   -1.5210   -1.2880 o         1 MOL     -0.488777
     68 H28        -5.1340    0.8760    0.0840 hn        1 MOL      0.012739
     69 H29        -7.6270   -0.4510   -0.6630 h1        1 MOL      0.116515
     70 H30        -5.5120    0.5480   -2.1100 hc        1 MOL      0.135934
     71 H31        -6.5580   -0.6540   -2.7330 hc        1 MOL      0.135934
     72 H32        -5.5440   -2.6030   -3.5370 hn        1 MOL      0.329540
     73 H33        -4.0590   -3.2120   -2.9100 hn        1 MOL      0.329540
     74 N8         -6.0300   -1.9600    1.4800 n         1 MOL     -0.400782
     75 C23        -5.9880   -3.1230    2.4010 c3        1 MOL     -0.072586
     76 C24        -4.6520   -3.8650    2.4350 c         1 MOL      0.556789
     77 O12        -4.4760   -4.6930    3.3490 o         1 MOL     -0.579337
     78 H34        -6.0700   -1.0700    1.9570 hn        1 MOL      0.360776
     79 H35        -6.6450   -3.8810    1.9740 h1        1 MOL      0.096801
     80 H36        -6.2840   -2.8770    3.4150 h1        1 MOL      0.096801
     81 N9         -3.7390   -3.6270    1.4650 n         1 MOL     -0.335924
     82 C25        -2.3940   -4.2820    1.5330 c3        1 MOL      0.074750
     83 C26        -1.2740   -3.3530    1.0420 c         1 MOL      0.769386
     84 O13        -1.5610   -2.3790    0.3520 o         1 MOL     -0.712836
     85 C27        -2.4060   -5.5540    0.6780 c3        1 MOL     -0.121002
     86 C28        -2.5740   -5.3940   -0.8220 ca        1 MOL      0.106449
     87 C29        -1.5680   -4.8550   -1.6320 ca        1 MOL     -0.152018
     88 C30        -3.7650   -5.8780   -1.4310 ca        1 MOL     -0.152018
     89 C31        -1.7580   -4.7740   -3.0260 ca        1 MOL     -0.272838
     90 C32        -3.9270   -5.9040   -2.8420 ca        1 MOL     -0.272838
     91 C33        -2.9210   -5.3120   -3.6370 ca        1 MOL      0.337772
     92 O14        -3.0550   -5.1810   -4.9830 oh        1 MOL     -0.557222
     93 H37        -4.0150   -2.9320    0.7820 hn        1 MOL      0.237723
     94 H38        -2.1160   -4.5740    2.5380 h1        1 MOL      0.054589
     95 H39        -3.1850   -6.2590    0.9330 hc        1 MOL      0.044908
     96 H40        -1.4660   -6.0820    0.7880 hc        1 MOL      0.044908
     97 H41        -0.6250   -4.4970   -1.2380 ha        1 MOL      0.146871
     98 H42        -4.5610   -6.2540   -0.8110 ha        1 MOL      0.146871
     99 H43        -0.9640   -4.3670   -3.6330 ha        1 MOL      0.144740
    100 H44        -4.7470   -6.3650   -3.3760 ha        1 MOL      0.144740
    101 H45        -3.8390   -5.5390   -5.3940 ho        1 MOL      0.407754
    102 N10        -0.0520   -3.6080    1.4400 n         1 MOL     -0.474136
    103 C34         1.0740   -2.7620    1.2350 c3        1 MOL     -0.518855
    104 C35         2.1370   -3.4930    0.3780 c         1 MOL      0.724860
    105 O15         2.2130   -4.7040    0.3090 o         1 MOL     -0.538800
    106 C36         1.6460   -2.2080    2.6610 c3        1 MOL      0.059909
    107 C37         2.1950   -3.2740    3.6630 c3        1 MOL     -0.124540
    108 C38         0.5330   -1.3460    3.3750 c3        1 MOL     -0.003602
    109 C39         3.1510   -2.8610    4.8120 c3        1 MOL     -0.170878
    110 H46         0.0030   -4.4350    2.0350 hn        1 MOL      0.312222
    111 H47         0.7820   -1.9260    0.5990 h1        1 MOL      0.274736
    112 H48         2.4160   -1.5100    2.3150 hc        1 MOL      0.040407
    113 H49         2.7640   -4.0060    3.0860 hc        1 MOL      0.082206
    114 H50         1.2960   -3.7030    4.1000 hc        1 MOL      0.082206
    115 H51        -0.3800   -1.9400    3.3540 hc        1 MOL      0.015374
    116 H52         0.8520   -1.0190    4.3710 hc        1 MOL      0.015374
    117 H53         0.4340   -0.4300    2.7900 hc        1 MOL      0.015374
    118 H54         3.3020   -3.7960    5.3370 hc        1 MOL      0.053257
    119 H55         4.0330   -2.3740    4.3830 hc        1 MOL      0.053257
    120 H56         2.6500   -2.1490    5.4710 hc        1 MOL      0.053257
    121 N11         3.1540   -2.6790   -0.0690 n         1 MOL     -0.372064
    122 C40         4.2150   -3.1420   -0.9680 c3        1 MOL     -0.048909
    123 C41         5.6140   -2.7540   -0.5050 c         1 MOL      0.590911
    124 O16         5.8170   -2.0470    0.4600 o         1 MOL     -0.484102
    125 C42         3.9030   -2.5580   -2.2980 c3        1 MOL     -0.162805
    126 O17         3.9330   -1.1660   -2.2070 oh        1 MOL     -0.527008
    127 H57         2.9570   -1.6900   -0.0190 hn        1 MOL      0.267662
    128 H58         4.1300   -4.2260   -1.0410 h1        1 MOL      0.075812
    129 H59         2.9070   -2.8440   -2.6180 h1        1 MOL      0.114957
    130 H60         4.6870   -2.7850   -3.0210 h1        1 MOL      0.114957
    131 H61         3.1580   -0.8020   -1.7810 ho        1 MOL      0.348478
    132 N12         6.6700   -3.0940   -1.3100 n         1 MOL     -0.506514
    133 C43         8.0800   -2.7500   -0.9790 c3        1 MOL      0.112823
    134 C44         8.2560   -1.1800   -1.0770 c         1 MOL      0.494928
    135 O18         8.7090   -0.5420   -0.1850 o         1 MOL     -0.502547
    136 C45         9.0330   -3.5930   -1.8200 c3        1 MOL     -0.254221
    137 H62         6.4350   -3.6070   -2.1450 hn        1 MOL      0.296955
    138 H63         8.2940   -2.9900    0.0610 h1        1 MOL      0.103105
    139 H64        10.0470   -3.1800   -1.7800 hc        1 MOL      0.077555
    140 H65         9.0700   -4.6550   -1.5730 hc        1 MOL      0.077555
    141 H66         8.6920   -3.5040   -2.8520 hc        1 MOL      0.077555
    142 N13         7.5370   -0.4580   -2.0080 n         1 MOL     -0.379954
    143 C46         7.7530    0.9420   -2.1210 c3        1 MOL     -0.034273
    144 C47         7.0240    1.7870   -1.0130 c         1 MOL      0.428204
    145 O19         7.4450    2.9060   -0.7900 o         1 MOL     -0.522386
    146 C48         7.2910    1.4850   -3.4810 c3        1 MOL     -0.272190
    147 H67         7.0120   -0.9030   -2.7480 hn        1 MOL      0.291178
    148 H68         8.8180    1.1550   -1.9850 h1        1 MOL      0.131914
    149 H69         6.2450    1.4090   -3.7900 hc        1 MOL      0.077601
    150 H70         7.5860    2.5230   -3.6230 hc        1 MOL      0.077601
    151 H71         7.8830    0.9050   -4.1900 hc        1 MOL      0.077601
    152 N14         5.9890    1.2510   -0.3830 n         1 MOL     -0.004260
    153 C49         5.2440    1.8410    0.7210 c3        1 MOL     -0.287690
    154 C50         6.0860    1.6240    1.9760 c         1 MOL      0.524233
    155 O20         6.3360    2.5850    2.7560 o         1 MOL     -0.528923
    156 C51         3.9100    1.2260    0.9140 c3        1 MOL      0.121186
    157 C52         2.7770    1.9550    0.1440 c3        1 MOL      0.148208
    158 C53         1.7380    0.8630   -0.1990 c         1 MOL      0.569750
    159 O21         2.0900   -0.1700   -0.7940 o         1 MOL     -0.659650
    160 O22         0.5520    1.0320    0.1820 o         1 MOL     -0.659650
    161 H72         5.6360    0.3460   -0.6640 hn        1 MOL      0.047015
    162 H73         5.0980    2.8940    0.4860 h1        1 MOL      0.119819
    163 H74         3.5590    1.2970    1.9420 hc        1 MOL     -0.011468
    164 H75         3.9830    0.1740    0.6260 hc        1 MOL     -0.011468
    165 H76         3.2570    2.4570   -0.7040 hc        1 MOL     -0.008451
    166 H77         2.3550    2.7150    0.8030 hc        1 MOL     -0.008451
    167 N15         6.6810    0.4090    2.2170 n         1 MOL     -0.166210
    168 C54         7.3630    0.0880    3.4510 c3        1 MOL     -0.355678
    169 H78         8.3410    0.5680    3.4600 h1        1 MOL      0.128490
    170 H79         6.7750    0.4460    4.2960 h1        1 MOL      0.128490
    171 H80         7.4890   -0.9920    3.5270 h1        1 MOL      0.128490
    172 H81         6.6770   -0.2890    1.4850 hn        1 MOL      0.226606
    173 Ca1        -1.4920    0.0450   -0.9920 Ca        1 MOL      1.739428
    174 O23        -2.2580    0.0200   -3.5480 oh        1 MOL     -0.829290
    175 H82        -2.8990    0.6600   -3.8380 ho        1 MOL      0.394133
    176 H83        -2.1810   -0.5930   -4.2890 ho        1 MOL      0.394133
    177 O24         0.1500    1.5750   -2.5370 oh        1 MOL     -0.829290
    178 H84        -0.4020    1.7190   -3.3000 ho        1 MOL      0.394133
    179 H85         1.0180    1.8630   -2.8080 ho        1 MOL      0.394133
    180 O25         0.1750   -1.7310   -1.7980 oh        1 MOL     -0.829290
    181 H86         0.4330   -2.1520   -2.6120 ho        1 MOL      0.394133
    182 H87         0.9600   -1.2650   -1.5150 ho        1 MOL      0.394133
@<TRIPOS>BOND
     1    1    2 1   
     2    1    4 1   
     3    1    5 1   
     4    1    6 1   
     5    2    3 2   
     6    2    7 1   
     7    7    8 1   
     8    7   15 1   
     9    8    9 1   
    10    8   11 1   
    11    8   16 1   
    12    9   10 2   
    13    9   19 1   
    14   11   12 1   
    15   11   17 1   
    16   11   18 1   
    17   12   13 1   
    18   12   14 1   
    19   19   20 1   
    20   19   28 1   
    21   20   21 1   
    22   20   23 1   
    23   20   29 1   
    24   21   22 2   
    25   21   41 1   
    26   23   24 1   
    27   23   30 1   
    28   23   31 1   
    29   24   25 1   
    30   24   32 1   
    31   24   33 1   
    32   25   26 1   
    33   25   34 1   
    34   25   35 1   
    35   26   27 1   
    36   26   36 1   
    37   26   37 1   
    38   27   38 1   
    39   27   39 1   
    40   27   40 1   
    41   41   42 1   
    42   41   49 1   
    43   42   43 1   
    44   42   45 1   
    45   42   50 1   
    46   43   44 2   
    47   43   53 1   
    48   45   46 1   
    49   45   51 1   
    50   45   52 1   
    51   46   47 1   
    52   46   48 1   
    53   53   54 1   
    54   53   57 1   
    55   54   55 1   
    56   54   58 1   
    57   54   59 1   
    58   55   56 2   
    59   55   60 1   
    60   60   61 1   
    61   60   68 1   
    62   61   62 1   
    63   61   64 1   
    64   61   69 1   
    65   62   63 2   
    66   62   74 1   
    67   64   65 1   
    68   64   70 1   
    69   64   71 1   
    70   65   66 1   
    71   65   67 2   
    72   66   72 1   
    73   66   73 1   
    74   74   75 1   
    75   74   78 1   
    76   75   76 1   
    77   75   79 1   
    78   75   80 1   
    79   76   77 2   
    80   76   81 1   
    81   81   82 1   
    82   81   93 1   
    83   82   83 1   
    84   82   85 1   
    85   82   94 1   
    86   83   84 2   
    87   83  102 1   
    88   85   86 1   
    89   85   95 1   
    90   85   96 1   
    91   86   87 ar  
    92   86   88 ar  
    93   87   89 ar  
    94   87   97 1   
    95   88   90 ar  
    96   88   98 1   
    97   89   91 ar  
    98   89   99 1   
    99   90   91 ar  
   100   90  100 1   
   101   91   92 1   
   102   92  101 1   
   103  102  103 1   
   104  102  110 1   
   105  103  104 1   
   106  103  106 1   
   107  103  111 1   
   108  104  105 2   
   109  104  121 1   
   110  106  107 1   
   111  106  108 1   
   112  106  112 1   
   113  107  109 1   
   114  107  113 1   
   115  107  114 1   
   116  108  115 1   
   117  108  116 1   
   118  108  117 1   
   119  109  118 1   
   120  109  119 1   
   121  109  120 1   
   122  121  122 1   
   123  121  127 1   
   124  122  123 1   
   125  122  125 1   
   126  122  128 1   
   127  123  124 2   
   128  123  132 1   
   129  125  126 1   
   130  125  129 1   
   131  125  130 1   
   132  126  131 1   
   133  132  133 1   
   134  132  137 1   
   135  133  134 1   
   136  133  136 1   
   137  133  138 1   
   138  134  135 2   
   139  134  142 1   
   140  136  139 1   
   141  136  140 1   
   142  136  141 1   
   143  142  143 1   
   144  142  147 1   
   145  143  144 1   
   146  143  146 1   
   147  143  148 1   
   148  144  145 2   
   149  144  152 1   
   150  146  149 1   
   151  146  150 1   
   152  146  151 1   
   153  152  153 1   
   154  152  161 1   
   155  153  154 1   
   156  153  156 1   
   157  153  162 1   
   158  154  155 2   
   159  154  167 1   
   160  156  157 1   
   161  156  163 1   
   162  156  164 1   
   163  157  158 1   
   164  157  165 1   
   165  157  166 1   
   166  158  159 1   
   167  158  160 1   
   168  167  168 1   
   169  167  172 1   
   170  168  169 1   
   171  168  170 1   
   172  168  171 1   
   173  174  175 1   
   174  174  176 1   
   175  177  178 1   
   176  177  179 1   
   177  180  181 1   
   178  180  182 1   
@<TRIPOS>SUBSTRUCTURE
     1 MOL         1 TEMP              0 ****  ****    0 ROOT
