@<TRIPOS>MOLECULE
MOL
  189   185     1     0     0
SMALL
resp


@<TRIPOS>ATOM
      1 C1          0.5120    3.2980    4.8610 c3        1 MOL     -0.049935
      2 C2         -0.0510    3.0020    3.4730 c         1 MOL      0.630344
      3 O1          0.3570    3.5450    2.4640 o         1 MOL     -0.574440
      4 H1         -0.1060    4.0510    5.3500 hc        1 MOL      0.013233
      5 H2          0.5110    2.3850    5.4560 hc        1 MOL      0.013233
      6 H3          1.5320    3.6700    4.7690 hc        1 MOL      0.013233
      7 N1         -1.2810    2.2740    3.5340 n         1 MOL     -0.601227
      8 C3         -1.9560    2.0140    2.2530 c3        1 MOL      0.078213
      9 C4         -2.5350    3.2560    1.6080 c         1 MOL      0.613707
     10 O2         -3.3790    3.8740    2.2660 o         1 MOL     -0.616965
     11 C5         -3.0530    0.9060    2.5030 c3        1 MOL     -0.301174
     12 C6         -3.8920    0.7640    1.2010 c         1 MOL      0.699408
     13 O3         -5.1170    0.6750    1.2990 o         1 MOL     -0.659675
     14 O4         -3.3680    0.7860    0.0630 o         1 MOL     -0.659675
     15 H4         -1.6870    2.0040    4.4270 hn        1 MOL      0.331669
     16 H5         -1.2580    1.5250    1.5750 h1        1 MOL      0.007690
     17 H6         -3.7220    1.1380    3.3390 hc        1 MOL      0.095617
     18 H7         -2.5390   -0.0330    2.7150 hc        1 MOL      0.095617
     19 N2         -2.1450    3.5190    0.3730 n         1 MOL     -0.007430
     20 C7         -2.7630    4.6560   -0.4260 c3        1 MOL     -0.085365
     21 C8         -3.7630    4.2230   -1.5140 c         1 MOL      0.445116
     22 O5         -4.3150    5.0930   -2.1800 o         1 MOL     -0.586895
     23 C9         -1.5090    5.4250   -0.9870 c3        1 MOL      0.083147
     24 C10        -0.5120    5.7990    0.0940 c3        1 MOL     -0.159152
     25 C11        -1.1290    6.4780    1.2960 c3        1 MOL     -0.023711
     26 C12        -1.9270    7.7450    0.8920 c3        1 MOL      0.058851
     27 N3         -1.8370    8.7990    1.9540 n4        1 MOL     -0.417819
     28 H8         -1.5770    2.8780   -0.1540 hn        1 MOL      0.152700
     29 H9         -3.3390    5.3390    0.2090 h1        1 MOL      0.034293
     30 H10        -1.8120    6.4010   -1.3580 hc        1 MOL     -0.003206
     31 H11        -1.0870    4.7740   -1.7610 hc        1 MOL     -0.003206
     32 H12         0.3110    6.3610   -0.3660 hc        1 MOL      0.059625
     33 H13         0.0650    4.9490    0.4630 hc        1 MOL      0.059625
     34 H14        -0.2390    6.8280    1.8260 hc        1 MOL      0.035017
     35 H15        -1.6700    5.7900    1.9520 hc        1 MOL      0.035017
     36 H16        -2.9550    7.3940    0.8210 hx        1 MOL      0.084113
     37 H17        -1.6070    8.1960   -0.0440 hx        1 MOL      0.084113
     38 H18        -2.4530    9.5820    1.7670 hn        1 MOL      0.335394
     39 H19        -2.1020    8.5320    2.8960 hn        1 MOL      0.335394
     40 H20        -0.8720    9.1120    1.9660 hn        1 MOL      0.335394
     41 N4         -4.0780    3.0020   -1.7620 n         1 MOL      0.113291
     42 C13        -5.0520    2.5010   -2.7680 c3        1 MOL     -0.263704
     43 C14        -6.4450    2.1340   -2.2630 c         1 MOL      0.440032
     44 O6         -7.3580    2.0190   -3.0830 o         1 MOL     -0.487988
     45 C15        -4.5240    1.3300   -3.5280 c3        1 MOL     -0.009270
     46 C16        -3.0600    1.4560   -3.8670 c         1 MOL      0.596779
     47 O7         -2.6870    2.2570   -4.8090 o         1 MOL     -0.633828
     48 O8         -2.3090    0.8420   -3.2000 o         1 MOL     -0.633828
     49 H21        -3.8830    2.3030   -1.0560 hn        1 MOL     -0.107243
     50 H22        -5.1830    3.2280   -3.5610 h1        1 MOL      0.146735
     51 H23        -5.1310    1.1270   -4.4060 hc        1 MOL      0.020901
     52 H24        -4.6920    0.4600   -2.9000 hc        1 MOL      0.020901
     53 N5         -6.6000    1.8340   -0.9710 n         1 MOL     -0.280349
     54 C17        -7.8530    1.3530   -0.4160 c3        1 MOL     -0.190062
     55 C18        -7.9610   -0.1560   -0.7070 c         1 MOL      0.383204
     56 O9         -9.1010   -0.6190   -0.9330 o         1 MOL     -0.540266
     57 H25        -5.8490    2.0700   -0.3360 hn        1 MOL      0.251862
     58 H26        -8.6570    1.8970   -0.9120 h1        1 MOL      0.120938
     59 H27        -7.7510    1.4720    0.6710 h1        1 MOL      0.120938
     60 N6         -6.8030   -0.7990   -0.9610 n         1 MOL     -0.068824
     61 C19        -6.8240   -2.1560   -1.5100 c3        1 MOL     -0.047346
     62 C20        -6.6600   -3.3190   -0.4340 c         1 MOL      0.383918
     63 O10        -6.8810   -4.4830   -0.7590 o         1 MOL     -0.505367
     64 C21        -5.7100   -2.3150   -2.5510 c3        1 MOL     -0.415732
     65 C22        -4.2690   -2.1670   -2.1030 c         1 MOL      0.759038
     66 O11        -3.4020   -2.2100   -2.9800 o         1 MOL     -0.699981
     67 O12        -4.0080   -2.1270   -0.8500 o         1 MOL     -0.699981
     68 H28        -5.9390   -0.3110   -0.7590 hn        1 MOL      0.260554
     69 H29        -7.7650   -2.3280   -2.0340 h1        1 MOL      0.128512
     70 H30        -6.0560   -1.5680   -3.2730 hc        1 MOL      0.128627
     71 H31        -5.8290   -3.2700   -3.0490 hc        1 MOL      0.128627
     72 N7         -6.3740   -2.9830    0.8640 n         1 MOL     -0.312074
     73 C23        -6.1210   -4.0090    1.8900 c3        1 MOL     -0.148209
     74 C24        -4.7500   -4.7780    1.9180 c         1 MOL      0.592839
     75 O13        -4.4730   -5.4850    2.7880 o         1 MOL     -0.578058
     76 H32        -6.1340   -2.0210    1.0240 hn        1 MOL      0.223143
     77 H33        -6.9120   -4.7450    1.7500 h1        1 MOL      0.105739
     78 H34        -6.3020   -3.5210    2.8470 h1        1 MOL      0.105739
     79 N8         -3.7490   -4.4090    1.0930 n         1 MOL     -0.410183
     80 C25        -2.3370   -4.8460    1.3120 c3        1 MOL      0.004108
     81 C26        -1.4570   -3.6240    1.4330 c         1 MOL      0.818144
     82 O14        -1.7580   -2.6330    0.7560 o         1 MOL     -0.675918
     83 C27        -1.8060   -5.7860    0.2340 c3        1 MOL      0.252887
     84 C28        -2.2090   -7.2720    0.3540 c3        1 MOL     -0.395336
     85 O15        -2.1090   -5.4050   -1.0900 oh        1 MOL     -0.547930
     86 H35        -3.9840   -3.6620    0.4590 hn        1 MOL      0.285374
     87 H36        -2.2250   -5.3850    2.2580 h1        1 MOL      0.086320
     88 H37        -0.7250   -5.7500    0.4030 h1        1 MOL      0.038316
     89 H38        -3.0460   -5.6210   -1.1290 ho        1 MOL      0.394707
     90 H39        -1.5470   -7.8050   -0.3310 hc        1 MOL      0.109211
     91 H40        -2.0330   -7.5320    1.3950 hc        1 MOL      0.109211
     92 H41        -3.2230   -7.4330   -0.0180 hc        1 MOL      0.109211
     93 N9         -0.4040   -3.7230    2.3150 n         1 MOL     -0.823201
     94 C29         0.6370   -2.6590    2.3150 c3        1 MOL      0.149059
     95 C30         1.8980   -3.0710    1.4780 c         1 MOL      0.538044
     96 O16         2.5190   -4.0920    1.7530 o         1 MOL     -0.583270
     97 C31         1.0430   -2.1970    3.7330 c3        1 MOL      0.443458
     98 C32        -0.1230   -1.5930    4.5780 c3        1 MOL      0.058654
     99 C33         2.2090   -1.2730    3.7530 c3        1 MOL     -0.632776
    100 C34         0.1350   -1.6720    6.1060 c3        1 MOL     -0.224897
    101 H42        -0.3950   -4.5400    2.8950 hn        1 MOL      0.348895
    102 H43         0.2280   -1.7780    1.8150 h1        1 MOL      0.037452
    103 H44         1.3160   -3.1280    4.2100 hc        1 MOL     -0.054709
    104 H45        -1.0570   -2.1210    4.4000 hc        1 MOL     -0.011090
    105 H46        -0.2980   -0.5570    4.2820 hc        1 MOL     -0.011090
    106 H47         2.3930   -0.9410    4.7770 hc        1 MOL      0.125536
    107 H48         3.0420   -1.9620    3.5510 hc        1 MOL      0.125536
    108 H49         2.1040   -0.3760    3.1460 hc        1 MOL      0.125536
    109 H50         0.9690   -1.0200    6.3770 hc        1 MOL      0.049780
    110 H51        -0.7380   -1.3210    6.6500 hc        1 MOL      0.049780
    111 H52         0.5210   -2.6160    6.4940 hc        1 MOL      0.049780
    112 N10         2.4860   -2.2530    0.5930 n         1 MOL     -0.296032
    113 C35         3.7910   -2.5670   -0.1130 c3        1 MOL     -0.020291
    114 C36         5.0270   -2.0690    0.6360 c         1 MOL      0.601661
    115 O17         4.9380   -1.2500    1.5260 o         1 MOL     -0.445542
    116 C37         3.8040   -2.0660   -1.5460 c3        1 MOL     -0.214434
    117 C38         2.5310   -2.5560   -2.2710 c3        1 MOL     -0.067231
    118 O18         3.8040   -0.6570   -1.5380 oh        1 MOL     -0.136587
    119 H53         2.0480   -1.3680    0.4250 hn        1 MOL      0.213069
    120 H54         3.9120   -3.6520   -0.1650 h1        1 MOL      0.101494
    121 H55         4.6260   -2.5360   -2.0840 h1        1 MOL      0.076643
    122 H56         3.4830   -0.2650   -2.3480 ho        1 MOL      0.293505
    123 H57         1.5390   -2.4030   -1.8530 hc        1 MOL      0.041909
    124 H58         2.4430   -2.1540   -3.2870 hc        1 MOL      0.041909
    125 H59         2.6430   -3.5780   -2.6390 hc        1 MOL      0.041909
    126 N11         6.2240   -2.5350    0.2230 n         1 MOL     -0.539527
    127 C39         7.4980   -1.8490    0.4650 c3        1 MOL      0.037444
    128 C40         7.4800   -0.3410    0.0820 c         1 MOL      0.107946
    129 O19         8.1600    0.5360    0.6780 o         1 MOL     -0.491685
    130 C41         8.6060   -2.3500   -0.4060 c3        1 MOL      0.124914
    131 C42         9.2690   -3.6410    0.1340 c3        1 MOL     -0.330416
    132 O20         8.1560   -2.4880   -1.7130 oh        1 MOL     -0.628948
    133 H60         6.2220   -3.1830   -0.5520 hn        1 MOL      0.307606
    134 H61         7.8010   -1.8520    1.5130 h1        1 MOL      0.164233
    135 H62         9.4500   -1.6570   -0.5050 h1        1 MOL      0.121524
    136 H63         8.1540   -3.3980   -2.0050 ho        1 MOL      0.411262
    137 H64         9.7780   -3.5230    1.0940 hc        1 MOL      0.105620
    138 H65         8.4450   -4.3220    0.3430 hc        1 MOL      0.105620
    139 H66         9.8450   -4.2020   -0.6050 hc        1 MOL      0.105620
    140 N12         6.6830    0.0470   -0.9070 n         1 MOL      0.283009
    141 C43         6.5380    1.3850   -1.3890 c3        1 MOL     -0.219912
    142 C44         5.7540    2.2160   -0.4420 c         1 MOL      0.397755
    143 O21         6.0100    3.4230   -0.3310 o         1 MOL     -0.526369
    144 C45         6.1000    1.4800   -2.9060 c3        1 MOL     -0.453212
    145 C46         6.9560    0.7410   -3.8770 c3        1 MOL     -0.083686
    146 C47         8.4050    1.2450   -4.0450 c3        1 MOL      0.078716
    147 C48         9.1880    0.5090   -5.0780 c3        1 MOL     -0.100952
    148 N13         9.6130   -0.8300   -4.7620 n4        1 MOL     -0.184085
    149 H67         6.0760   -0.6440   -1.3250 hn        1 MOL      0.073782
    150 H68         7.5150    1.8520   -1.2810 h1        1 MOL      0.130621
    151 H69         6.3060    2.5100   -3.2100 hc        1 MOL      0.191967
    152 H70         5.0600    1.2360   -3.0610 hc        1 MOL      0.191967
    153 H71         6.5680    0.9630   -4.8690 hc        1 MOL      0.042843
    154 H72         7.0370   -0.3250   -3.6630 hc        1 MOL      0.042843
    155 H73         8.9480    1.2670   -3.0970 hc        1 MOL      0.055908
    156 H74         8.3480    2.2690   -4.4160 hc        1 MOL      0.055908
    157 H75        10.0650    1.1310   -5.2510 hx        1 MOL      0.103102
    158 H76         8.5820    0.4410   -5.9810 hx        1 MOL      0.103102
    159 H77        10.2400   -1.3150   -5.3910 hn        1 MOL      0.248205
    160 H78        10.1140   -0.9370   -3.8890 hn        1 MOL      0.248205
    161 H79         8.8050   -1.4400   -4.7060 hn        1 MOL      0.248205
    162 N14         4.9000    1.6160    0.3870 n         1 MOL      0.025484
    163 C49         3.8980    2.2720    1.3130 c3        1 MOL     -0.242639
    164 C50         4.4760    2.3950    2.7560 c         1 MOL      0.469551
    165 O22         4.2260    3.3420    3.4680 o         1 MOL     -0.501797
    166 C51         2.5950    1.4660    1.1900 c3        1 MOL      0.135743
    167 C52         1.8310    1.8720   -0.0320 c3        1 MOL     -0.013988
    168 C53         0.6020    1.0380   -0.3490 c         1 MOL      0.556778
    169 O23         0.5120   -0.1820   -0.0890 o         1 MOL     -0.681919
    170 O24        -0.3360    1.5290   -1.0080 o         1 MOL     -0.681919
    171 H80         4.6490    0.7040    0.0380 hn        1 MOL     -0.057144
    172 H81         3.7000    3.2950    1.0030 h1        1 MOL      0.142888
    173 H82         1.9490    1.6460    2.0410 hc        1 MOL      0.000894
    174 H83         2.7700    0.3970    1.1130 hc        1 MOL      0.000894
    175 H84         2.4120    1.8280   -0.9480 hc        1 MOL      0.003922
    176 H85         1.5020    2.9010    0.1080 hc        1 MOL      0.003922
    177 N15         5.4990    1.5660    3.1090 n         1 MOL     -0.163686
    178 C54         6.2510    1.7970    4.2770 c3        1 MOL     -0.183419
    179 H86         5.6760    2.4210    4.9610 h1        1 MOL      0.076765
    180 H87         6.4780    0.8450    4.7570 h1        1 MOL      0.076765
    181 H88         7.1800    2.3030    4.0160 h1        1 MOL      0.076765
    182 H89         5.6650    0.7170    2.6010 hn        1 MOL      0.216327
    183 Ca1        -1.8100   -0.7650   -1.2660 Ca        1 MOL      1.715488
    184 O25        -0.8700   -3.1580   -1.9650 oh        1 MOL     -0.793657
    185 H90        -0.5920   -3.4050   -2.8460 ho        1 MOL      0.380456
    186 H91        -1.2230   -3.9600   -1.5970 ho        1 MOL      0.380456
    187 O26         0.0030   -0.4000   -3.3800 oh        1 MOL     -0.793657
    188 H92         0.7480    0.1970   -3.3350 ho        1 MOL      0.380456
    189 H93        -0.7100    0.1210   -3.7280 ho        1 MOL      0.380456
@<TRIPOS>BOND
     1    1    2 1   
     2    1    4 1   
     3    1    5 1   
     4    1    6 1   
     5    2    3 2   
     6    2    7 1   
     7    7    8 1   
     8    7   15 1   
     9    8    9 1   
    10    8   11 1   
    11    8   16 1   
    12    9   10 2   
    13    9   19 1   
    14   11   12 1   
    15   11   17 1   
    16   11   18 1   
    17   12   13 1   
    18   12   14 1   
    19   19   20 1   
    20   19   28 1   
    21   20   21 1   
    22   20   23 1   
    23   20   29 1   
    24   21   22 2   
    25   21   41 1   
    26   23   24 1   
    27   23   30 1   
    28   23   31 1   
    29   24   25 1   
    30   24   32 1   
    31   24   33 1   
    32   25   26 1   
    33   25   34 1   
    34   25   35 1   
    35   26   27 1   
    36   26   36 1   
    37   26   37 1   
    38   27   38 1   
    39   27   39 1   
    40   27   40 1   
    41   41   42 1   
    42   41   49 1   
    43   42   43 1   
    44   42   45 1   
    45   42   50 1   
    46   43   44 2   
    47   43   53 1   
    48   45   46 1   
    49   45   51 1   
    50   45   52 1   
    51   46   47 1   
    52   46   48 1   
    53   53   54 1   
    54   53   57 1   
    55   54   55 1   
    56   54   58 1   
    57   54   59 1   
    58   55   56 2   
    59   55   60 1   
    60   60   61 1   
    61   60   68 1   
    62   61   62 1   
    63   61   64 1   
    64   61   69 1   
    65   62   63 2   
    66   62   72 1   
    67   64   65 1   
    68   64   70 1   
    69   64   71 1   
    70   65   66 1   
    71   65   67 1   
    72   72   73 1   
    73   72   76 1   
    74   73   74 1   
    75   73   77 1   
    76   73   78 1   
    77   74   75 2   
    78   74   79 1   
    79   79   80 1   
    80   79   86 1   
    81   80   81 1   
    82   80   83 1   
    83   80   87 1   
    84   81   82 2   
    85   81   93 1   
    86   83   84 1   
    87   83   85 1   
    88   83   88 1   
    89   84   90 1   
    90   84   91 1   
    91   84   92 1   
    92   85   89 1   
    93   93   94 1   
    94   93  101 1   
    95   94   95 1   
    96   94   97 1   
    97   94  102 1   
    98   95   96 2   
    99   95  112 1   
   100   97   98 1   
   101   97   99 1   
   102   97  103 1   
   103   98  100 1   
   104   98  104 1   
   105   98  105 1   
   106   99  106 1   
   107   99  107 1   
   108   99  108 1   
   109  100  109 1   
   110  100  110 1   
   111  100  111 1   
   112  112  113 1   
   113  112  119 1   
   114  113  114 1   
   115  113  116 1   
   116  113  120 1   
   117  114  115 2   
   118  114  126 1   
   119  116  117 1   
   120  116  118 1   
   121  116  121 1   
   122  117  123 1   
   123  117  124 1   
   124  117  125 1   
   125  118  122 1   
   126  126  127 1   
   127  126  133 1   
   128  127  128 1   
   129  127  130 1   
   130  127  134 1   
   131  128  129 2   
   132  128  140 1   
   133  130  131 1   
   134  130  132 1   
   135  130  135 1   
   136  131  137 1   
   137  131  138 1   
   138  131  139 1   
   139  132  136 1   
   140  140  141 1   
   141  140  149 1   
   142  141  142 1   
   143  141  144 1   
   144  141  150 1   
   145  142  143 2   
   146  142  162 1   
   147  144  145 1   
   148  144  151 1   
   149  144  152 1   
   150  145  146 1   
   151  145  153 1   
   152  145  154 1   
   153  146  147 1   
   154  146  155 1   
   155  146  156 1   
   156  147  148 1   
   157  147  157 1   
   158  147  158 1   
   159  148  159 1   
   160  148  160 1   
   161  148  161 1   
   162  162  163 1   
   163  162  171 1   
   164  163  164 1   
   165  163  166 1   
   166  163  172 1   
   167  164  165 2   
   168  164  177 1   
   169  166  167 1   
   170  166  173 1   
   171  166  174 1   
   172  167  168 1   
   173  167  175 1   
   174  167  176 1   
   175  168  169 1   
   176  168  170 1   
   177  177  178 1   
   178  177  182 1   
   179  178  179 1   
   180  178  180 1   
   181  178  181 1   
   182  184  185 1   
   183  184  186 1   
   184  187  188 1   
   185  187  189 1   
@<TRIPOS>SUBSTRUCTURE
     1 MOL         1 TEMP              0 ****  ****    0 ROOT
