@<TRIPOS>MOLECULE
MOL
  176   174     1     0     0
SMALL
resp


@<TRIPOS>ATOM
      1 C1          1.0810    2.6780    6.3240 c3        1 MOL     -0.337818
      2 C2          0.8040    2.3140    4.8200 c         1 MOL      0.778050
      3 O1          1.7580    2.2690    4.0660 o         1 MOL     -0.585106
      4 H1          0.7380    1.8650    6.9640 hc        1 MOL      0.084938
      5 H2          2.1510    2.8290    6.4710 hc        1 MOL      0.084938
      6 H3          0.5470    3.5930    6.5810 hc        1 MOL      0.084938
      7 N1         -0.4500    2.1230    4.4160 n         1 MOL     -0.663532
      8 C3         -0.8660    2.1470    2.9900 c3        1 MOL     -0.044759
      9 C4         -0.8360    3.5660    2.4390 c         1 MOL      0.537894
     10 O2         -1.5540    4.4860    3.0140 o         1 MOL     -0.545955
     11 C5         -2.2530    1.4380    2.8910 c3        1 MOL     -0.023788
     12 C6         -2.5050    1.1950    1.4200 c         1 MOL      0.542281
     13 O3         -2.1600    2.0090    0.5230 o         1 MOL     -0.647056
     14 O4         -2.9980    0.1650    0.9020 o         1 MOL     -0.647056
     15 H4         -1.2600    2.1130    5.0230 hn        1 MOL      0.349328
     16 H5         -0.0740    1.6200    2.4590 h1        1 MOL      0.025772
     17 H6         -3.0550    2.0780    3.2740 hc        1 MOL      0.046973
     18 H7         -2.3670    0.5240    3.4680 hc        1 MOL      0.046973
     19 N2         -0.1340    3.8190    1.3190 n         1 MOL     -0.274187
     20 C7          0.0190    5.1570    0.8730 c3        1 MOL      0.067017
     21 C8         -1.2560    5.5340    0.0800 c         1 MOL      0.075636
     22 O5         -2.0040    6.4110    0.4800 o         1 MOL     -0.463299
     23 C9          1.3250    5.2730    0.0180 c3        1 MOL     -0.195777
     24 C10         1.3510    6.6650   -0.5090 c3        1 MOL      0.016080
     25 C11         2.6510    7.0070   -1.2700 c3        1 MOL     -0.006638
     26 C12         2.5600    8.4060   -1.8880 c3        1 MOL      0.007776
     27 N3          3.8790    8.8670   -2.3520 n4        1 MOL     -0.139952
     28 H8          0.3370    3.0490    0.8610 hn        1 MOL      0.253836
     29 H9          0.1290    5.8230    1.7260 h1        1 MOL      0.108136
     30 H10         1.4430    4.4500   -0.6880 hc        1 MOL      0.078570
     31 H11         2.0750    5.2690    0.8060 hc        1 MOL      0.078570
     32 H12         1.2210    7.3460    0.3380 hc        1 MOL      0.054939
     33 H13         0.5890    6.6930   -1.2800 hc        1 MOL      0.054939
     34 H14         2.8650    6.2740   -2.0480 hc        1 MOL      0.022102
     35 H15         3.5340    7.1230   -0.6410 hc        1 MOL      0.022102
     36 H16         2.2290    9.0040   -1.0430 hx        1 MOL      0.064794
     37 H17         1.8590    8.4060   -2.7280 hx        1 MOL      0.064794
     38 H18         4.1460    8.0780   -2.9270 hn        1 MOL      0.270726
     39 H19         3.8520    9.6390   -2.9990 hn        1 MOL      0.270726
     40 H20         4.5970    9.0260   -1.6670 hn        1 MOL      0.270726
     41 N4         -1.5290    4.8180   -0.9890 n         1 MOL     -0.016071
     42 C13        -2.6460    5.0220   -1.9020 c3        1 MOL     -0.032749
     43 C14        -4.0360    4.6030   -1.2720 c         1 MOL      0.397840
     44 O6         -5.0420    5.1110   -1.6620 o         1 MOL     -0.526010
     45 C15        -2.5190    4.2290   -3.2680 c3        1 MOL     -0.356631
     46 C16        -2.1190    2.7930   -2.9240 c         1 MOL      0.701044
     47 O7         -0.9240    2.4490   -2.7760 o         1 MOL     -0.694569
     48 O8         -3.0570    2.0210   -2.5060 o         1 MOL     -0.694569
     49 H21        -0.9660    4.0000   -1.2000 hn        1 MOL      0.135477
     50 H22        -2.7710    6.0960   -2.1050 h1        1 MOL      0.107591
     51 H23        -1.8650    4.6890   -4.0100 hc        1 MOL      0.100355
     52 H24        -3.5020    4.1860   -3.7260 hc        1 MOL      0.100355
     53 N5         -3.9330    4.0030   -0.0730 n         1 MOL     -0.026670
     54 C17        -4.9970    3.7070    0.8010 c3        1 MOL     -0.243027
     55 C18        -5.9350    2.5430    0.4050 c         1 MOL      0.517031
     56 O9         -6.9470    2.3250    1.0540 o         1 MOL     -0.580984
     57 H25        -3.0390    3.6320    0.2180 hn        1 MOL      0.276733
     58 H26        -5.5630    4.6050    1.0340 h1        1 MOL      0.105050
     59 H27        -4.6130    3.3170    1.7540 h1        1 MOL      0.105050
     60 N6         -5.5670    1.7220   -0.5580 n         1 MOL     -0.187679
     61 C19        -6.4020    0.6580   -1.0470 c3        1 MOL     -0.041274
     62 C20        -6.4880   -0.5410   -0.0210 c         1 MOL      0.369858
     63 O10        -7.3750   -1.3570   -0.1720 o         1 MOL     -0.516035
     64 C21        -5.9250    0.0750   -2.4220 c3        1 MOL     -0.045384
     65 C22        -4.7490   -0.8840   -2.3620 c         1 MOL      0.537861
     66 N7         -4.8430   -2.0610   -3.0030 n         1 MOL     -0.762892
     67 O11        -3.7540   -0.6810   -1.7170 o         1 MOL     -0.525919
     68 H28        -4.6800    1.9920   -0.9410 hn        1 MOL      0.109211
     69 H29        -7.4180    0.9640   -1.2680 h1        1 MOL      0.109765
     70 H30        -5.6340    0.8360   -3.1310 hc        1 MOL      0.046464
     71 H31        -6.7820   -0.4310   -2.8780 hc        1 MOL      0.046464
     72 H32        -5.7440   -2.2930   -3.3910 hn        1 MOL      0.362579
     73 H33        -4.0560   -2.6950   -3.1190 hn        1 MOL      0.362579
     74 N8         -5.6380   -0.6410    1.0040 n         1 MOL      0.044602
     75 C23        -5.6750   -1.7570    1.9250 c3        1 MOL     -0.591539
     76 C24        -4.6870   -2.9010    1.5960 c         1 MOL      0.873911
     77 O12        -4.7180   -3.8920    2.3200 o         1 MOL     -0.595644
     78 H34        -4.8680    0.0120    1.1100 hn        1 MOL      0.148221
     79 H35        -6.6550   -2.2370    1.8830 h1        1 MOL      0.191725
     80 H36        -5.4460   -1.3420    2.9000 h1        1 MOL      0.191725
     81 N9         -3.6750   -2.6740    0.7300 n         1 MOL     -0.666839
     82 C25        -2.6340   -3.6680    0.4700 c3        1 MOL      0.169872
     83 C26        -1.3620   -2.9710    0.2200 c         1 MOL      0.673514
     84 O13        -1.3720   -1.9010   -0.3530 o         1 MOL     -0.699978
     85 C27        -2.9650   -4.6390   -0.6960 c3        1 MOL     -0.101478
     86 C28        -4.3130   -5.4410   -0.5060 ca        1 MOL      0.095195
     87 C29        -5.5340   -4.8430   -0.8670 ca        1 MOL     -0.186930
     88 C30        -4.3090   -6.8290   -0.1130 ca        1 MOL     -0.186930
     89 C31        -6.7250   -5.5710   -0.8450 ca        1 MOL     -0.278702
     90 C32        -5.5390   -7.5520   -0.0490 ca        1 MOL     -0.278702
     91 C33        -6.6790   -6.9140   -0.4400 ca        1 MOL      0.376269
     92 O14        -7.8200   -7.6510   -0.3830 oh        1 MOL     -0.488822
     93 H37        -3.6370   -1.7810    0.2640 hn        1 MOL      0.351666
     94 H38        -2.4650   -4.3290    1.3290 h1        1 MOL      0.038884
     95 H39        -2.1980   -5.3350   -1.0510 hc        1 MOL      0.026107
     96 H40        -3.1730   -4.0020   -1.5560 hc        1 MOL      0.026107
     97 H41        -5.6260   -3.8030   -1.1420 ha        1 MOL      0.132571
     98 H42        -3.3840   -7.3340    0.1160 ha        1 MOL      0.132571
     99 H43        -7.7130   -5.1930   -1.0550 ha        1 MOL      0.164243
    100 H44        -5.5980   -8.5400    0.3610 ha        1 MOL      0.164243
    101 H45        -7.5790   -8.5310   -0.0930 ho        1 MOL      0.337001
    102 N10        -0.2370   -3.4280    0.8140 n         1 MOL     -0.595409
    103 C34         1.0550   -2.7740    0.6910 c3        1 MOL      0.089803
    104 C35         2.0750   -3.7150    0.0870 c         1 MOL      0.584572
    105 O15         2.2340   -4.8080    0.5660 o         1 MOL     -0.565969
    106 C36         1.5840   -2.1010    2.0020 c3        1 MOL      0.114800
    107 C37         1.8680   -2.9700    3.2060 c3        1 MOL      0.213577
    108 C38         0.6500   -0.9880    2.4560 c3        1 MOL     -0.014076
    109 C39         2.0050   -2.3570    4.5970 c3        1 MOL     -0.341802
    110 H46        -0.3080   -4.2640    1.3850 hn        1 MOL      0.315481
    111 H47         0.8650   -1.9570   -0.0120 h1        1 MOL      0.032465
    112 H48         2.5110   -1.6170    1.6950 hc        1 MOL     -0.157441
    113 H49         2.8450   -3.4050    3.0370 hc        1 MOL     -0.034671
    114 H50         1.1880   -3.8230    3.2790 hc        1 MOL     -0.034671
    115 H51        -0.2450   -1.4290    2.8980 hc        1 MOL      0.016673
    116 H52         1.2350   -0.2950    3.0720 hc        1 MOL      0.016673
    117 H53         0.2620   -0.4030    1.6270 hc        1 MOL      0.016673
    118 H54         2.6410   -1.4880    4.4840 hc        1 MOL      0.079719
    119 H55         1.0290   -1.9840    4.9060 hc        1 MOL      0.079719
    120 H56         2.4580   -3.1030    5.2590 hc        1 MOL      0.079719
    121 N11         2.8480   -3.1680   -0.8150 n         1 MOL     -0.475595
    122 C40         3.9640   -3.8910   -1.4160 c3        1 MOL      0.138890
    123 C41         5.2440   -3.7060   -0.6820 c         1 MOL      0.329046
    124 O16         5.4120   -2.9170    0.2510 o         1 MOL     -0.306633
    125 C42         4.1170   -3.3630   -2.8580 c3        1 MOL     -0.036187
    126 O17         4.9620   -2.1380   -2.9010 oh        1 MOL     -0.475189
    127 H57         2.7300   -2.2460   -1.2100 hn        1 MOL      0.295627
    128 H58         3.8370   -4.9560   -1.6150 h1        1 MOL      0.075641
    129 H59         3.1810   -3.1370   -3.3580 h1        1 MOL      0.076225
    130 H60         4.6330   -4.1300   -3.4320 h1        1 MOL      0.076225
    131 H61         5.0990   -1.8910   -3.8120 ho        1 MOL      0.385033
    132 N12         6.2810   -4.3850   -1.0120 n         1 MOL     -0.347064
    133 C43         7.6260   -4.0970   -0.5360 c3        1 MOL      0.138617
    134 C44         8.1750   -2.6950   -0.7470 c         1 MOL      0.416251
    135 O18         8.9850   -2.1950    0.0480 o         1 MOL     -0.547057
    136 C45         8.4770   -5.1180   -1.2750 c3        1 MOL     -0.280990
    137 H62         6.1630   -5.1170   -1.6950 hn        1 MOL      0.275874
    138 H63         7.7020   -4.3130    0.5250 h1        1 MOL      0.085202
    139 H64         8.1880   -6.1450   -1.0530 hc        1 MOL      0.079070
    140 H65         8.3150   -4.9780   -2.3440 hc        1 MOL      0.079070
    141 H66         9.5370   -4.9010   -1.1380 hc        1 MOL      0.079070
    142 N13         7.6270   -1.9610   -1.6580 n         1 MOL     -0.216183
    143 C46         8.0370   -0.5850   -1.8790 c3        1 MOL      0.132655
    144 C47         7.1550    0.3590   -1.0220 c         1 MOL      0.434615
    145 O19         7.6830    1.4020   -0.6190 o         1 MOL     -0.528598
    146 C48         8.0600   -0.2640   -3.3580 c3        1 MOL     -0.261708
    147 H67         6.8750   -2.4480   -2.1180 hn        1 MOL      0.122607
    148 H68         9.0160   -0.3550   -1.4710 h1        1 MOL      0.101964
    149 H69         7.0750   -0.3270   -3.8260 hc        1 MOL      0.067933
    150 H70         8.3410    0.7880   -3.4390 hc        1 MOL      0.067933
    151 H71         8.7090   -0.9590   -3.8820 hc        1 MOL      0.067933
    152 N14         5.9140    0.0090   -0.6270 n         1 MOL     -0.264205
    153 C49         5.1800    0.7080    0.5210 c3        1 MOL     -0.066210
    154 C50         5.7470    0.3870    1.8430 c         1 MOL      0.440244
    155 O20         5.7810    1.2610    2.7070 o         1 MOL     -0.545659
    156 C51         3.6330    0.5200    0.4550 c3        1 MOL     -0.120969
    157 C52         2.9820    1.3980   -0.6000 c3        1 MOL      0.180839
    158 C53         1.5010    1.0580   -0.7720 c         1 MOL      0.729565
    159 O21         0.5530    1.5710   -0.1440 o         1 MOL     -0.778445
    160 O22         1.1820    0.1180   -1.6190 o         1 MOL     -0.778445
    161 H72         5.5450   -0.9010   -0.8790 hn        1 MOL      0.067172
    162 H73         5.3990    1.7610    0.3960 h1        1 MOL      0.093899
    163 H74         3.2470    0.8240    1.4320 hc        1 MOL      0.141445
    164 H75         3.4960   -0.5350    0.2580 hc        1 MOL      0.141445
    165 H76         3.4560    1.1890   -1.5600 hc        1 MOL     -0.073863
    166 H77         3.0840    2.4610   -0.3500 hc        1 MOL     -0.073863
    167 N15         6.1930   -0.8450    2.0250 n         1 MOL     -0.005151
    168 C54         6.8100   -1.2540    3.2900 c3        1 MOL     -0.211234
    169 H78         6.3670   -2.1920    3.6240 h1        1 MOL      0.087043
    170 H79         7.8820   -1.3910    3.1440 h1        1 MOL      0.087043
    171 H80         6.6410   -0.4840    4.0430 h1        1 MOL      0.087043
    172 H81         5.9570   -1.5710    1.3630 hn        1 MOL      0.052013
    173 Ca1        -1.5400    0.4020   -1.3800 Ca        1 MOL      1.807996
    174 O23        -1.3410   -0.5270   -3.9300 oh        1 MOL     -0.908163
    175 H82        -0.9190   -0.1290   -4.6870 ho        1 MOL      0.436007
    176 H83        -1.5080   -1.4370   -4.1860 ho        1 MOL      0.436007
@<TRIPOS>BOND
     1    1    2 1   
     2    1    4 1   
     3    1    5 1   
     4    1    6 1   
     5    2    3 2   
     6    2    7 1   
     7    7    8 1   
     8    7   15 1   
     9    8    9 1   
    10    8   11 1   
    11    8   16 1   
    12    9   10 2   
    13    9   19 1   
    14   11   12 1   
    15   11   17 1   
    16   11   18 1   
    17   12   13 1   
    18   12   14 1   
    19   19   20 1   
    20   19   28 1   
    21   20   21 1   
    22   20   23 1   
    23   20   29 1   
    24   21   22 2   
    25   21   41 1   
    26   23   24 1   
    27   23   30 1   
    28   23   31 1   
    29   24   25 1   
    30   24   32 1   
    31   24   33 1   
    32   25   26 1   
    33   25   34 1   
    34   25   35 1   
    35   26   27 1   
    36   26   36 1   
    37   26   37 1   
    38   27   38 1   
    39   27   39 1   
    40   27   40 1   
    41   41   42 1   
    42   41   49 1   
    43   42   43 1   
    44   42   45 1   
    45   42   50 1   
    46   43   44 2   
    47   43   53 1   
    48   45   46 1   
    49   45   51 1   
    50   45   52 1   
    51   46   47 1   
    52   46   48 1   
    53   53   54 1   
    54   53   57 1   
    55   54   55 1   
    56   54   58 1   
    57   54   59 1   
    58   55   56 2   
    59   55   60 1   
    60   60   61 1   
    61   60   68 1   
    62   61   62 1   
    63   61   64 1   
    64   61   69 1   
    65   62   63 2   
    66   62   74 1   
    67   64   65 1   
    68   64   70 1   
    69   64   71 1   
    70   65   66 1   
    71   65   67 2   
    72   66   72 1   
    73   66   73 1   
    74   74   75 1   
    75   74   78 1   
    76   75   76 1   
    77   75   79 1   
    78   75   80 1   
    79   76   77 2   
    80   76   81 1   
    81   81   82 1   
    82   81   93 1   
    83   82   83 1   
    84   82   85 1   
    85   82   94 1   
    86   83   84 2   
    87   83  102 1   
    88   85   86 1   
    89   85   95 1   
    90   85   96 1   
    91   86   87 ar  
    92   86   88 ar  
    93   87   89 ar  
    94   87   97 1   
    95   88   90 ar  
    96   88   98 1   
    97   89   91 ar  
    98   89   99 1   
    99   90   91 ar  
   100   90  100 1   
   101   91   92 1   
   102   92  101 1   
   103  102  103 1   
   104  102  110 1   
   105  103  104 1   
   106  103  106 1   
   107  103  111 1   
   108  104  105 2   
   109  104  121 1   
   110  106  107 1   
   111  106  108 1   
   112  106  112 1   
   113  107  109 1   
   114  107  113 1   
   115  107  114 1   
   116  108  115 1   
   117  108  116 1   
   118  108  117 1   
   119  109  118 1   
   120  109  119 1   
   121  109  120 1   
   122  121  122 1   
   123  121  127 1   
   124  122  123 1   
   125  122  125 1   
   126  122  128 1   
   127  123  124 2   
   128  123  132 1   
   129  125  126 1   
   130  125  129 1   
   131  125  130 1   
   132  126  131 1   
   133  132  133 1   
   134  132  137 1   
   135  133  134 1   
   136  133  136 1   
   137  133  138 1   
   138  134  135 2   
   139  134  142 1   
   140  136  139 1   
   141  136  140 1   
   142  136  141 1   
   143  142  143 1   
   144  142  147 1   
   145  143  144 1   
   146  143  146 1   
   147  143  148 1   
   148  144  145 2   
   149  144  152 1   
   150  146  149 1   
   151  146  150 1   
   152  146  151 1   
   153  152  153 1   
   154  152  161 1   
   155  153  154 1   
   156  153  156 1   
   157  153  162 1   
   158  154  155 2   
   159  154  167 1   
   160  156  157 1   
   161  156  163 1   
   162  156  164 1   
   163  157  158 1   
   164  157  165 1   
   165  157  166 1   
   166  158  159 1   
   167  158  160 1   
   168  167  168 1   
   169  167  172 1   
   170  168  169 1   
   171  168  170 1   
   172  168  171 1   
   173  174  175 1   
   174  174  176 1   
@<TRIPOS>SUBSTRUCTURE
     1 MOL         1 TEMP              0 ****  ****    0 ROOT
