@<TRIPOS>MOLECULE
MOL
  179   176     1     0     0
SMALL
resp


@<TRIPOS>ATOM
      1 C1          2.9620   -5.6740    4.4020 c3        1 MOL     -0.383098
      2 C2          2.5450   -4.9390    3.1330 c         1 MOL      0.691537
      3 O1          2.0440   -5.5010    2.2030 o         1 MOL     -0.551425
      4 H1          2.2220   -6.4390    4.6380 hc        1 MOL      0.095464
      5 H2          3.9330   -6.1440    4.2480 hc        1 MOL      0.095464
      6 H3          3.0270   -4.9650    5.2280 hc        1 MOL      0.095464
      7 N1          2.8750   -3.5930    3.1010 n         1 MOL     -0.587363
      8 C3          2.6840   -2.8080    1.9180 c3        1 MOL      0.118165
      9 C4          4.1020   -2.6540    1.2050 c         1 MOL      0.487359
     10 O2          4.6940   -1.6030    1.0570 o         1 MOL     -0.428102
     11 C5          2.1280   -1.4010    2.4120 c3        1 MOL     -0.042567
     12 C6          1.7280   -0.6890    1.1400 c         1 MOL      0.750745
     13 O3          0.8320   -1.1400    0.3560 o         1 MOL     -0.800038
     14 O4          2.1670    0.4920    0.9160 o         1 MOL     -0.800038
     15 H4          3.1970   -3.2180    3.9830 hn        1 MOL      0.303945
     16 H5          1.9750   -3.3700    1.3050 h1        1 MOL      0.087238
     17 H6          2.8990   -0.8060    2.9140 hc        1 MOL      0.016376
     18 H7          1.2820   -1.4560    3.0960 hc        1 MOL      0.016376
     19 N2          4.5760   -3.8140    0.7120 n         1 MOL     -0.515143
     20 C7          5.8920   -4.0600    0.1120 c3        1 MOL      0.116661
     21 C8          6.3350   -3.0550   -0.9810 c         1 MOL      0.385980
     22 O5          7.5230   -2.7610   -1.0000 o         1 MOL     -0.513374
     23 C9          6.0870   -5.5150   -0.3560 c3        1 MOL     -0.248486
     24 C10         6.3210   -6.5120    0.8280 c3        1 MOL      0.040107
     25 C11         6.8660   -7.8840    0.2190 c3        1 MOL      0.072533
     26 C12         7.0650   -8.9110    1.3120 c3        1 MOL     -0.027020
     27 N3          7.4480  -10.2220    0.7640 n4        1 MOL     -0.240240
     28 H8          3.8800   -4.5510    0.6480 hn        1 MOL      0.299017
     29 H9          6.6580   -3.8860    0.8680 h1        1 MOL      0.089209
     30 H10         6.9240   -5.6570   -1.0340 hc        1 MOL      0.100964
     31 H11         5.2110   -5.8370   -0.9100 hc        1 MOL      0.100964
     32 H12         5.3680   -6.7260    1.3090 hc        1 MOL      0.011290
     33 H13         7.0170   -6.2090    1.6130 hc        1 MOL      0.011290
     34 H14         7.7460   -7.7360   -0.4040 hc        1 MOL      0.011865
     35 H15         6.0810   -8.1930   -0.4710 hc        1 MOL      0.011865
     36 H16         6.1530   -9.0930    1.8920 hx        1 MOL      0.095852
     37 H17         7.8640   -8.5700    1.9710 hx        1 MOL      0.095852
     38 H18         8.3150  -10.2990    0.2550 hn        1 MOL      0.296700
     39 H19         7.5620  -10.8390    1.5540 hn        1 MOL      0.296700
     40 H20         6.7840  -10.6550    0.1320 hn        1 MOL      0.296700
     41 N4          5.4550   -2.4970   -1.8730 n         1 MOL     -0.324249
     42 C13         5.6820   -1.4670   -2.8590 c3        1 MOL     -0.010499
     43 C14         6.3630   -0.2510   -2.2810 c         1 MOL      0.458781
     44 O6          7.1290    0.3760   -2.9760 o         1 MOL     -0.564704
     45 C15         4.3650   -1.0840   -3.5160 c3        1 MOL     -0.253129
     46 C16         3.2520   -0.5270   -2.6510 c         1 MOL      0.824520
     47 O7          3.4580    0.4420   -1.8740 o         1 MOL     -0.770412
     48 O8          2.1440   -1.0160   -2.6970 o         1 MOL     -0.770412
     49 H21         4.5380   -2.9280   -1.8760 hn        1 MOL      0.255332
     50 H22         6.2090   -1.8500   -3.7330 h1        1 MOL      0.101852
     51 H23         4.0770   -1.9550   -4.1090 hc        1 MOL      0.074428
     52 H24         4.4990   -0.4460   -4.3970 hc        1 MOL      0.074428
     53 N5          6.3280    0.1080   -0.9680 n         1 MOL      0.050113
     54 C17         7.2060    1.1330   -0.3960 c3        1 MOL     -0.506487
     55 C18         6.5990    2.5220   -0.5630 c         1 MOL      0.629401
     56 O9          7.2250    3.4970   -0.1450 o         1 MOL     -0.569565
     57 H25         5.7830   -0.3820   -0.2720 hn        1 MOL      0.146809
     58 H26         8.1450    1.0230   -0.9300 h1        1 MOL      0.182622
     59 H27         7.2440    1.0540    0.6950 h1        1 MOL      0.182622
     60 N6          5.3200    2.5960   -1.0030 n         1 MOL     -0.360960
     61 C19         4.6580    3.9620   -1.0900 c3        1 MOL      0.119790
     62 C20         4.0800    4.5730    0.2370 c         1 MOL      0.241324
     63 O10         4.0120    5.8330    0.2040 o         1 MOL     -0.440900
     64 C21         3.7720    4.1080   -2.2950 c3        1 MOL     -0.187602
     65 C22         2.3360    3.7130   -2.1720 c         1 MOL      0.629245
     66 N7          1.4380    4.2550   -2.9870 n         1 MOL     -0.745796
     67 O11         1.9340    2.9970   -1.3150 o         1 MOL     -0.510856
     68 H28         4.8090    1.8080   -1.3800 hn        1 MOL      0.216907
     69 H29         5.4430    4.6960   -1.3030 h1        1 MOL      0.078087
     70 H30         4.1790    3.4420   -3.0540 hc        1 MOL      0.063655
     71 H31         3.8090    5.1700   -2.5560 hc        1 MOL      0.063655
     72 H32         1.7930    4.9360   -3.6420 hn        1 MOL      0.344806
     73 H33         0.4700    4.0270   -2.7730 hn        1 MOL      0.344806
     74 N8          3.8050    3.8240    1.2670 n         1 MOL     -0.050678
     75 C23         3.4310    4.3030    2.5770 c3        1 MOL     -0.324741
     76 C24         1.8700    4.5840    2.7100 c         1 MOL      0.526970
     77 O12         1.4230    5.2050    3.6430 o         1 MOL     -0.555848
     78 H34         3.9790    2.8380    1.1240 hn        1 MOL      0.213471
     79 H35         3.9490    5.2550    2.7520 h1        1 MOL      0.143697
     80 H36         3.5990    3.6080    3.3920 h1        1 MOL      0.143697
     81 N9          1.1160    4.1340    1.7000 n         1 MOL     -0.112497
     82 C25        -0.3380    4.0890    1.7270 c3        1 MOL      0.100261
     83 C26        -0.8960    2.7030    1.2930 c         1 MOL      0.165389
     84 O13        -0.2730    1.9190    0.5910 o         1 MOL     -0.432737
     85 C27        -0.8800    5.2630    0.8360 c3        1 MOL     -0.198171
     86 C28        -0.3190    6.6170    1.0210 ca        1 MOL      0.243213
     87 C29         0.8280    7.0480    0.3970 ca        1 MOL     -0.228653
     88 C30        -1.1610    7.6690    1.5130 ca        1 MOL     -0.228653
     89 C31         1.2740    8.4190    0.3940 ca        1 MOL     -0.278823
     90 C32        -0.8340    9.0390    1.4260 ca        1 MOL     -0.278823
     91 C33         0.4180    9.3990    0.9530 ca        1 MOL      0.364855
     92 O14         0.8910   10.6380    1.0330 oh        1 MOL     -0.470684
     93 H37         1.6460    3.5730    1.0510 hn        1 MOL      0.137882
     94 H38        -0.6620    4.2700    2.7530 h1        1 MOL      0.041391
     95 H39        -1.9530    5.2050    1.0400 hc        1 MOL      0.049813
     96 H40        -0.8280    5.0190   -0.2280 hc        1 MOL      0.049813
     97 H41         1.4000    6.2320   -0.0290 ha        1 MOL      0.126997
     98 H42        -2.0760    7.3200    1.9740 ha        1 MOL      0.126997
     99 H43         2.2740    8.7340    0.1580 ha        1 MOL      0.148676
    100 H44        -1.5020    9.7710    1.8410 ha        1 MOL      0.148676
    101 H45         0.2560   11.2630    1.3860 ho        1 MOL      0.353019
    102 N10        -2.0870    2.3880    1.6880 n         1 MOL     -0.104139
    103 C34        -2.9400    1.2760    1.1760 c3        1 MOL     -0.050259
    104 C35        -4.2870    1.7920    0.7200 c         1 MOL      0.313605
    105 O15        -4.9710    2.6230    1.3970 o         1 MOL     -0.559606
    106 C36        -3.0830    0.0440    2.1700 c3        1 MOL      0.150725
    107 C37        -3.7870    0.6260    3.3910 c3        1 MOL     -0.021922
    108 C38        -1.7130   -0.6020    2.3690 c3        1 MOL     -0.341433
    109 C39        -3.5400   -0.0800    4.7840 c3        1 MOL     -0.117587
    110 H46        -2.4680    2.8750    2.4850 hn        1 MOL      0.257534
    111 H47        -2.5310    0.8710    0.2500 h1        1 MOL      0.029209
    112 H48        -3.7240   -0.7490    1.7920 hc        1 MOL     -0.092027
    113 H49        -4.8660    0.4900    3.2670 hc        1 MOL      0.025158
    114 H50        -3.5100    1.6720    3.4960 hc        1 MOL      0.025158
    115 H51        -1.0030    0.1000    2.8030 hc        1 MOL      0.103281
    116 H52        -1.8350   -1.4750    3.0200 hc        1 MOL      0.103281
    117 H53        -1.3430   -1.0810    1.4670 hc        1 MOL      0.103281
    118 H54        -3.6520   -1.1710    4.6970 hc        1 MOL      0.020648
    119 H55        -2.5130    0.1590    5.0810 hc        1 MOL      0.020648
    120 H56        -4.1910    0.2990    5.5650 hc        1 MOL      0.020648
    121 N11        -4.7610    1.2740   -0.3890 n         1 MOL     -0.030449
    122 C40        -6.1460    1.3680   -0.8160 c3        1 MOL     -0.154619
    123 C41        -6.9320    0.1850   -0.2090 c         1 MOL      0.543764
    124 O16        -6.2720   -0.7180    0.2790 o         1 MOL     -0.363720
    125 C42        -6.0920    1.4410   -2.3820 c3        1 MOL      0.055284
    126 O17        -5.6960    0.1510   -2.8950 oh        1 MOL     -0.606124
    127 H57        -4.0870    0.9210   -1.0590 hn        1 MOL      0.111182
    128 H58        -6.5720    2.3190   -0.5000 h1        1 MOL      0.078327
    129 H59        -5.4520    2.2240   -2.7860 h1        1 MOL      0.061255
    130 H60        -7.1300    1.6120   -2.6870 h1        1 MOL      0.061255
    131 H61        -4.7370    0.1590   -2.8260 ho        1 MOL      0.403746
    132 N12        -8.3210    0.1500   -0.2370 n         1 MOL     -0.553449
    133 C43        -9.0400   -0.9680    0.4170 c3        1 MOL      0.246357
    134 C44        -8.6220   -2.3180   -0.1770 c         1 MOL      0.410593
    135 O18        -8.6030   -3.2450    0.6200 o         1 MOL     -0.504284
    136 C45       -10.5590   -0.7330    0.2310 c3        1 MOL     -0.343973
    137 H62        -8.8620    0.9310   -0.5690 hn        1 MOL      0.328233
    138 H63        -8.9070   -0.9700    1.4980 h1        1 MOL      0.061696
    139 H64       -11.1250   -1.6510    0.3700 hc        1 MOL      0.094958
    140 H65       -10.7850    0.0570    0.9460 hc        1 MOL      0.094958
    141 H66       -10.6160   -0.3560   -0.7920 hc        1 MOL      0.094958
    142 N13        -8.4110   -2.4840   -1.4900 n         1 MOL     -0.348896
    143 C46        -7.9370   -3.7530   -2.0830 c3        1 MOL      0.065450
    144 C47        -6.5320   -4.2000   -1.5750 c         1 MOL      0.375839
    145 O19        -6.2470   -5.4080   -1.5130 o         1 MOL     -0.523286
    146 C48        -8.0230   -3.6210   -3.5900 c3        1 MOL     -0.292912
    147 H67        -8.5120   -1.7150   -2.1370 hn        1 MOL      0.285510
    148 H68        -8.5890   -4.5590   -1.7510 h1        1 MOL      0.099777
    149 H69        -7.3620   -4.3410   -4.0660 hc        1 MOL      0.084652
    150 H70        -9.0260   -3.5890   -4.0220 hc        1 MOL      0.084652
    151 H71        -7.6410   -2.6600   -3.9440 hc        1 MOL      0.084652
    152 N14        -5.6930   -3.2790   -1.1920 n         1 MOL     -0.100930
    153 C49        -4.4050   -3.6220   -0.4180 c3        1 MOL      0.033608
    154 C50        -4.6390   -3.9310    1.0160 c         1 MOL      0.340883
    155 O20        -4.2280   -4.9610    1.5320 o         1 MOL     -0.541428
    156 C51        -3.4280   -2.3950   -0.6460 c3        1 MOL      0.099412
    157 C52        -3.1550   -2.1120   -2.1230 c3        1 MOL     -0.186699
    158 C53        -2.5120   -0.8000   -2.3950 c         1 MOL      0.775819
    159 O21        -1.2840   -0.7280   -2.1270 o         1 MOL     -0.689371
    160 O22        -3.1910    0.2290   -2.5780 o         1 MOL     -0.689371
    161 H72        -5.9850   -2.3030   -1.1900 hn        1 MOL      0.074160
    162 H73        -3.8010   -4.4340   -0.8300 h1        1 MOL      0.074606
    163 H74        -2.5480   -2.5970   -0.0470 hc        1 MOL      0.043368
    164 H75        -3.8200   -1.4960   -0.1650 hc        1 MOL      0.043368
    165 H76        -4.0640   -2.1740   -2.7220 hc        1 MOL      0.017036
    166 H77        -2.5240   -2.9120   -2.4940 hc        1 MOL      0.017036
    167 N15        -5.5390   -3.2130    1.6710 n         1 MOL      0.063959
    168 C54        -6.1550   -3.6470    2.9600 c3        1 MOL     -0.222010
    169 H78        -7.2390   -3.6830    2.8500 h1        1 MOL      0.088711
    170 H79        -5.7850   -4.6370    3.2260 h1        1 MOL      0.088711
    171 H80        -5.8930   -2.9380    3.7450 h1        1 MOL      0.088711
    172 H81        -5.9010   -2.3630    1.2530 hn        1 MOL      0.044457
    173 Ca1         0.7960    0.7530   -1.4360 Ca        1 MOL      1.754913
    174 O23         0.4200    1.3660   -4.0060 oh        1 MOL     -0.843488
    175 H82        -0.3740    1.6420   -4.4630 ho        1 MOL      0.407381
    176 H83         1.1230    1.5550   -4.6260 ho        1 MOL      0.407381
    177 O24        -1.5340    2.3070   -1.9310 oh        1 MOL     -0.843488
    178 H84        -2.1710    3.0200   -2.0090 ho        1 MOL      0.407381
    179 H85        -2.0320    1.5190   -2.1820 ho        1 MOL      0.407381
@<TRIPOS>BOND
     1    1    2 1   
     2    1    4 1   
     3    1    5 1   
     4    1    6 1   
     5    2    3 2   
     6    2    7 1   
     7    7    8 1   
     8    7   15 1   
     9    8    9 1   
    10    8   11 1   
    11    8   16 1   
    12    9   10 2   
    13    9   19 1   
    14   11   12 1   
    15   11   17 1   
    16   11   18 1   
    17   12   13 1   
    18   12   14 1   
    19   19   20 1   
    20   19   28 1   
    21   20   21 1   
    22   20   23 1   
    23   20   29 1   
    24   21   22 2   
    25   21   41 1   
    26   23   24 1   
    27   23   30 1   
    28   23   31 1   
    29   24   25 1   
    30   24   32 1   
    31   24   33 1   
    32   25   26 1   
    33   25   34 1   
    34   25   35 1   
    35   26   27 1   
    36   26   36 1   
    37   26   37 1   
    38   27   38 1   
    39   27   39 1   
    40   27   40 1   
    41   41   42 1   
    42   41   49 1   
    43   42   43 1   
    44   42   45 1   
    45   42   50 1   
    46   43   44 2   
    47   43   53 1   
    48   45   46 1   
    49   45   51 1   
    50   45   52 1   
    51   46   47 1   
    52   46   48 1   
    53   53   54 1   
    54   53   57 1   
    55   54   55 1   
    56   54   58 1   
    57   54   59 1   
    58   55   56 2   
    59   55   60 1   
    60   60   61 1   
    61   60   68 1   
    62   61   62 1   
    63   61   64 1   
    64   61   69 1   
    65   62   63 2   
    66   62   74 1   
    67   64   65 1   
    68   64   70 1   
    69   64   71 1   
    70   65   66 1   
    71   65   67 2   
    72   66   72 1   
    73   66   73 1   
    74   74   75 1   
    75   74   78 1   
    76   75   76 1   
    77   75   79 1   
    78   75   80 1   
    79   76   77 2   
    80   76   81 1   
    81   81   82 1   
    82   81   93 1   
    83   82   83 1   
    84   82   85 1   
    85   82   94 1   
    86   83   84 2   
    87   83  102 1   
    88   85   86 1   
    89   85   95 1   
    90   85   96 1   
    91   86   87 ar  
    92   86   88 ar  
    93   87   89 ar  
    94   87   97 1   
    95   88   90 ar  
    96   88   98 1   
    97   89   91 ar  
    98   89   99 1   
    99   90   91 ar  
   100   90  100 1   
   101   91   92 1   
   102   92  101 1   
   103  102  103 1   
   104  102  110 1   
   105  103  104 1   
   106  103  106 1   
   107  103  111 1   
   108  104  105 2   
   109  104  121 1   
   110  106  107 1   
   111  106  108 1   
   112  106  112 1   
   113  107  109 1   
   114  107  113 1   
   115  107  114 1   
   116  108  115 1   
   117  108  116 1   
   118  108  117 1   
   119  109  118 1   
   120  109  119 1   
   121  109  120 1   
   122  121  122 1   
   123  121  127 1   
   124  122  123 1   
   125  122  125 1   
   126  122  128 1   
   127  123  124 2   
   128  123  132 1   
   129  125  126 1   
   130  125  129 1   
   131  125  130 1   
   132  126  131 1   
   133  132  133 1   
   134  132  137 1   
   135  133  134 1   
   136  133  136 1   
   137  133  138 1   
   138  134  135 2   
   139  134  142 1   
   140  136  139 1   
   141  136  140 1   
   142  136  141 1   
   143  142  143 1   
   144  142  147 1   
   145  143  144 1   
   146  143  146 1   
   147  143  148 1   
   148  144  145 2   
   149  144  152 1   
   150  146  149 1   
   151  146  150 1   
   152  146  151 1   
   153  152  153 1   
   154  152  161 1   
   155  153  154 1   
   156  153  156 1   
   157  153  162 1   
   158  154  155 2   
   159  154  167 1   
   160  156  157 1   
   161  156  163 1   
   162  156  164 1   
   163  157  158 1   
   164  157  165 1   
   165  157  166 1   
   166  158  159 1   
   167  158  160 1   
   168  167  168 1   
   169  167  172 1   
   170  168  169 1   
   171  168  170 1   
   172  168  171 1   
   173  174  175 1   
   174  174  176 1   
   175  177  178 1   
   176  177  179 1   
@<TRIPOS>SUBSTRUCTURE
     1 MOL         1 TEMP              0 ****  ****    0 ROOT
