@<TRIPOS>MOLECULE
MOL
  175   173     1     0     0
SMALL
resp


@<TRIPOS>ATOM
      1 C1          0.2490    3.3460    5.5070 c3        1 MOL     -0.361892
      2 C2         -0.0850    3.0840    4.0540 c         1 MOL      0.691303
      3 O1          0.5330    3.5510    3.1100 o         1 MOL     -0.564419
      4 H1         -0.4200    2.7670    6.1430 hc        1 MOL      0.087047
      5 H2          1.2800    3.0500    5.7020 hc        1 MOL      0.087047
      6 H3          0.1270    4.4070    5.7230 hc        1 MOL      0.087047
      7 N1         -1.2190    2.3350    3.9540 n         1 MOL     -0.583357
      8 C3         -1.9560    2.2160    2.6940 c3        1 MOL      0.183585
      9 C4         -2.5140    3.5950    2.2210 c         1 MOL      0.500227
     10 O2         -3.3370    4.2200    2.9220 o         1 MOL     -0.596935
     11 C5         -3.1060    1.2760    2.8880 c3        1 MOL     -0.061819
     12 C6         -3.7840    0.7540    1.6280 c         1 MOL      0.770843
     13 O3         -4.8530    0.1290    1.7350 o         1 MOL     -0.752499
     14 O4         -3.2690    1.0690    0.4780 o         1 MOL     -0.752499
     15 H4         -1.6650    2.0180    4.8010 hn        1 MOL      0.310369
     16 H5         -1.2370    1.8250    1.9740 h1        1 MOL      0.013962
     17 H6         -3.8580    1.7660    3.5100 hc        1 MOL      0.002735
     18 H7         -2.6800    0.4660    3.4750 hc        1 MOL      0.002735
     19 N2         -2.0440    4.0920    1.0740 n         1 MOL     -0.235816
     20 C7         -2.4910    5.3460    0.5450 c3        1 MOL      0.069362
     21 C8         -3.5370    5.2330   -0.5690 c         1 MOL      0.409887
     22 O5         -4.4010    6.1270   -0.5990 o         1 MOL     -0.567975
     23 C9         -1.3080    6.0510   -0.0470 c3        1 MOL     -0.194167
     24 H8         -1.2810    3.6080    0.6230 hn        1 MOL      0.234451
     25 H9         -2.7570    5.9920    1.3800 h1        1 MOL      0.078152
     26 H10        -0.9370    5.3630   -0.8060 hc        1 MOL      0.049478
     27 H11        -1.4740    7.0570   -0.4440 hc        1 MOL      0.049478
     28 H12        -0.5210    6.1330    0.7110 hc        1 MOL      0.049478
     29 N3         -3.6260    4.1120   -1.3220 n         1 MOL     -0.246983
     30 C10        -4.6590    3.9510   -2.3730 c3        1 MOL      0.016551
     31 C11        -5.8530    3.1120   -1.8800 c         1 MOL      0.423643
     32 O6         -6.9630    3.1190   -2.4470 o         1 MOL     -0.589760
     33 C12        -4.0370    3.4160   -3.6680 c3        1 MOL     -0.173755
     34 C13        -3.4050    2.0330   -3.5480 c         1 MOL      0.689862
     35 O7         -3.5190    1.3780   -2.5170 o         1 MOL     -0.683507
     36 O8         -2.8730    1.5690   -4.5990 o         1 MOL     -0.683507
     37 H13        -2.9140    3.4060   -1.2320 hn        1 MOL      0.233174
     38 H14        -5.0810    4.9320   -2.6100 h1        1 MOL      0.087113
     39 H15        -3.2870    4.0730   -4.1180 hc        1 MOL      0.040579
     40 H16        -4.8330    3.3650   -4.4080 hc        1 MOL      0.040579
     41 N4         -5.7170    2.5510   -0.7230 n         1 MOL     -0.006568
     42 C14        -6.8090    2.1110    0.1400 c3        1 MOL     -0.338276
     43 C15        -7.4260    0.7560   -0.1140 c         1 MOL      0.615873
     44 O9         -8.4670    0.4040    0.4450 o         1 MOL     -0.599316
     45 H17        -4.8050    2.6090   -0.2910 hn        1 MOL      0.122638
     46 H18        -7.5720    2.8830    0.1890 h1        1 MOL      0.137198
     47 H19        -6.4490    2.1380    1.1660 h1        1 MOL      0.137198
     48 N5         -6.8390   -0.0260   -1.0090 n         1 MOL     -0.361990
     49 C16        -7.1320   -1.4270   -1.3830 c3        1 MOL      0.037317
     50 C17        -7.1190   -2.3930   -0.1950 c         1 MOL      0.454456
     51 O10        -7.7740   -3.4300   -0.2390 o         1 MOL     -0.588621
     52 C18        -6.1880   -1.9390   -2.4680 c3        1 MOL     -0.259921
     53 C19        -4.8510   -2.3480   -1.9930 c         1 MOL      0.488696
     54 N6         -4.1760   -3.2560   -2.6580 n         1 MOL     -0.616394
     55 O11        -4.2800   -1.7730   -1.1150 o         1 MOL     -0.523189
     56 H20        -5.9960    0.4000   -1.3620 hn        1 MOL      0.235752
     57 H21        -8.1360   -1.4800   -1.7930 h1        1 MOL      0.081626
     58 H22        -6.0520   -1.1350   -3.1940 hc        1 MOL      0.106851
     59 H23        -6.6310   -2.7590   -3.0230 hc        1 MOL      0.106851
     60 H24        -4.7440   -3.6570   -3.3970 hn        1 MOL      0.303577
     61 H25        -3.3110   -3.5690   -2.2660 hn        1 MOL      0.303577
     62 N7         -6.3240   -2.1130    0.8400 n         1 MOL     -0.124894
     63 C20        -6.2080   -2.9710    2.0700 c3        1 MOL     -0.306615
     64 C21        -4.9300   -3.7910    2.1120 c         1 MOL      0.546076
     65 O12        -4.8610   -4.5550    3.0880 o         1 MOL     -0.569027
     66 H26        -5.9350   -1.1840    0.9220 hn        1 MOL      0.284151
     67 H27        -7.0510   -3.6440    2.2010 h1        1 MOL      0.141392
     68 H28        -6.1710   -2.1790    2.8090 h1        1 MOL      0.141392
     69 N8         -3.9890   -3.6880    1.1330 n         1 MOL     -0.123939
     70 C22        -2.6730   -4.3110    1.1620 c3        1 MOL     -0.031213
     71 C23        -1.5940   -3.2650    1.0700 c         1 MOL      0.576047
     72 O13        -1.8910   -2.0920    0.7300 o         1 MOL     -0.712675
     73 C24        -2.4700   -5.4910    0.1440 c3        1 MOL      0.213562
     74 C25        -3.6510   -6.3360    0.1100 c3        1 MOL     -0.279489
     75 O14        -2.2340   -4.9100   -1.1750 oh        1 MOL     -0.638597
     76 H29        -4.1840   -3.0530    0.3660 hn        1 MOL      0.165507
     77 H30        -2.5800   -4.6430    2.1910 h1        1 MOL      0.036324
     78 H31        -1.5950   -6.0680    0.4260 h1        1 MOL      0.038732
     79 H32        -2.3500   -5.5470   -1.8660 ho        1 MOL      0.427555
     80 H33        -4.0020   -6.5110    1.1330 hc        1 MOL      0.074331
     81 H34        -4.4140   -5.8130   -0.4770 hc        1 MOL      0.074331
     82 H35        -3.4410   -7.2520   -0.4290 hc        1 MOL      0.074331
     83 N9         -0.3560   -3.6640    1.4060 n         1 MOL     -0.332502
     84 C26         0.8310   -2.8270    1.5070 c3        1 MOL      0.067783
     85 C27         1.8690   -2.9650    0.3280 c         1 MOL      0.299964
     86 O15         2.4040   -4.0540    0.1160 o         1 MOL     -0.561661
     87 C28         1.5510   -3.1540    2.8760 c3        1 MOL      0.109248
     88 C29         0.6290   -3.1220    4.0430 c3        1 MOL     -0.042345
     89 C30         2.7180   -2.1620    3.1190 c3        1 MOL     -0.275401
     90 C31        -0.2670   -1.8610    4.1720 c3        1 MOL     -0.104833
     91 H36        -0.2110   -4.6460    1.5800 hn        1 MOL      0.251244
     92 H37         0.5070   -1.7920    1.5510 h1        1 MOL      0.141811
     93 H38         1.9250   -4.1740    2.7770 hc        1 MOL     -0.007446
     94 H39         1.3290   -3.1350    4.8790 hc        1 MOL      0.000584
     95 H40         0.1010   -4.0730    4.0250 hc        1 MOL      0.000584
     96 H41         3.2120   -2.3930    4.0610 hc        1 MOL      0.061992
     97 H42         3.4490   -2.1660    2.3060 hc        1 MOL      0.061992
     98 H43         2.3900   -1.1330    3.2710 hc        1 MOL      0.061992
     99 H44        -0.6650   -1.7640    5.1880 hc        1 MOL      0.025038
    100 H45         0.2640   -0.9720    3.8230 hc        1 MOL      0.025038
    101 H46        -1.0890   -1.8300    3.4590 hc        1 MOL      0.025038
    102 N10         2.0050   -1.9130   -0.4600 n         1 MOL     -0.065542
    103 C32         3.0510   -1.7060   -1.5060 c3        1 MOL      0.054885
    104 C33         4.4530   -1.4340   -0.9340 c         1 MOL      0.546413
    105 O16         4.5700   -1.0710    0.2770 o         1 MOL     -0.372178
    106 C34         2.6580   -0.5270   -2.4340 c3        1 MOL     -0.615088
    107 C35         1.3230   -0.7460   -3.1310 c         1 MOL      0.976288
    108 O17         0.4830    0.1560   -3.2360 o         1 MOL     -0.747188
    109 O18         1.1030   -1.7970   -3.7420 o         1 MOL     -0.747188
    110 H47         1.3570   -1.1510   -0.2830 hn        1 MOL      0.124524
    111 H48         3.0860   -2.6170   -2.1010 h1        1 MOL      0.040833
    112 H49         3.5270   -0.5120   -3.0850 hc        1 MOL      0.148489
    113 H50         2.6590    0.3820   -1.8380 hc        1 MOL      0.148489
    114 N11         5.5440   -1.6790   -1.6390 n         1 MOL     -0.717144
    115 C36         6.8910   -1.3880   -1.1750 c3        1 MOL      0.477403
    116 C37         6.9770    0.0880   -0.6120 c         1 MOL      0.351434
    117 O19         7.4330    0.2540    0.5170 o         1 MOL     -0.527177
    118 C38         7.8600   -1.7200   -2.2760 c3        1 MOL     -0.257255
    119 C39         9.2850   -1.4600   -1.7420 ca        1 MOL      0.168797
    120 C40         9.7390   -2.1650   -0.6290 ca        1 MOL     -0.287213
    121 C41        10.0400   -0.3650   -2.2800 ca        1 MOL     -0.287213
    122 C42        10.9930   -1.8090   -0.1310 ca        1 MOL      0.059153
    123 C43        11.4040   -0.1660   -1.8370 ca        1 MOL      0.059153
    124 C44        11.8830   -0.9660   -0.8460 ca        1 MOL     -0.286410
    125 H51         5.4610   -2.0250   -2.5890 hn        1 MOL      0.356955
    126 H52         7.0550   -2.0290   -0.3060 h1        1 MOL      0.021250
    127 H53         7.6800   -1.0690   -3.1340 hc        1 MOL      0.075561
    128 H54         7.7970   -2.7500   -2.6200 hc        1 MOL      0.075561
    129 H55         9.1830   -2.9810   -0.1940 ha        1 MOL      0.138624
    130 H56         9.6230    0.1250   -3.1420 ha        1 MOL      0.138624
    131 H57        11.4980   -2.3660    0.6530 ha        1 MOL      0.070010
    132 H58        12.0800    0.5240   -2.3120 ha        1 MOL      0.070010
    133 H59        12.8390   -0.6900   -0.4200 ha        1 MOL      0.136365
    134 N12         6.6010    1.1330   -1.2910 n         1 MOL     -0.053043
    135 C45         6.6350    2.5110   -0.7060 c3        1 MOL     -0.008240
    136 C46         5.6960    2.7450    0.4700 c         1 MOL      0.302963
    137 O20         6.0270    3.6370    1.2730 o         1 MOL     -0.512959
    138 C47         6.2600    3.4400   -1.9400 c3        1 MOL     -0.171221
    139 C48         5.6050    2.5230   -2.9760 c3        1 MOL     -0.025447
    140 C49         6.2650    1.2030   -2.7210 c3        1 MOL     -0.021356
    141 H60         7.6410    2.8100   -0.4290 h1        1 MOL      0.102182
    142 H61         5.5440    4.2170   -1.6850 hc        1 MOL      0.072656
    143 H62         7.1850    3.8830   -2.2970 hc        1 MOL      0.072656
    144 H63         4.5230    2.6300   -2.8650 hc        1 MOL      0.054712
    145 H64         5.7230    2.8570   -4.0070 hc        1 MOL      0.054712
    146 H65         5.6480    0.3380   -3.0020 h1        1 MOL      0.006752
    147 H66         7.1590    1.0290   -3.3150 h1        1 MOL      0.006752
    148 N13         4.6380    1.9650    0.7600 n         1 MOL     -0.027064
    149 C50         3.7940    1.9140    1.9260 c3        1 MOL     -0.081242
    150 C51         4.5290    1.1270    3.0040 c         1 MOL      0.429617
    151 O21         4.6830    1.5850    4.1320 o         1 MOL     -0.579236
    152 C52         2.4810    1.2740    1.5490 c3        1 MOL      0.026029
    153 C53         1.7110    2.0400    0.3980 c3        1 MOL     -0.070983
    154 C54         0.4500    1.4030   -0.1420 c         1 MOL      0.665791
    155 O22         0.3460    0.1650   -0.1530 o         1 MOL     -0.721883
    156 O23        -0.5320    2.0700   -0.5460 o         1 MOL     -0.721883
    157 H67         4.5820    1.2150    0.0800 hn        1 MOL      0.110370
    158 H68         3.6000    2.9150    2.3130 h1        1 MOL      0.099853
    159 H69         1.8440    1.2160    2.4430 hc        1 MOL      0.022654
    160 H70         2.7160    0.2730    1.2060 hc        1 MOL      0.022654
    161 H71         2.4540    2.1370   -0.3870 hc        1 MOL      0.017929
    162 H72         1.4970    3.0780    0.6560 hc        1 MOL      0.017929
    163 N14         5.2240    0.0680    2.7040 n         1 MOL      0.029744
    164 C55         5.9940   -0.7120    3.7250 c3        1 MOL     -0.198349
    165 H73         7.0320   -0.8030    3.4050 h1        1 MOL      0.071308
    166 H74         5.9550   -0.1960    4.6840 h1        1 MOL      0.071308
    167 H75         5.5570   -1.7060    3.8280 h1        1 MOL      0.071308
    168 H76         5.1420   -0.3170    1.7790 hn        1 MOL      0.022488
    169 Ca1        -2.0010   -0.2340   -1.2050 Ca        1 MOL      1.769701
    170 O24        -2.4400   -1.0130   -3.6640 oh        1 MOL     -0.726713
    171 H77        -2.9190   -0.3580   -4.1700 ho        1 MOL      0.345626
    172 H78        -2.0780   -1.6080   -4.3120 ho        1 MOL      0.345626
    173 O25        -0.7060   -2.6110   -1.9320 oh        1 MOL     -0.726713
    174 H79        -0.8330   -3.5660   -1.8940 ho        1 MOL      0.345626
    175 H80        -0.1810   -2.4650   -2.7100 ho        1 MOL      0.345626
@<TRIPOS>BOND
     1    1    2 1   
     2    1    4 1   
     3    1    5 1   
     4    1    6 1   
     5    2    3 2   
     6    2    7 1   
     7    7    8 1   
     8    7   15 1   
     9    8    9 1   
    10    8   11 1   
    11    8   16 1   
    12    9   10 2   
    13    9   19 1   
    14   11   12 1   
    15   11   17 1   
    16   11   18 1   
    17   12   13 1   
    18   12   14 1   
    19   19   20 1   
    20   19   24 1   
    21   20   21 1   
    22   20   23 1   
    23   20   25 1   
    24   21   22 2   
    25   21   29 1   
    26   23   26 1   
    27   23   27 1   
    28   23   28 1   
    29   29   30 1   
    30   29   37 1   
    31   30   31 1   
    32   30   33 1   
    33   30   38 1   
    34   31   32 2   
    35   31   41 1   
    36   33   34 1   
    37   33   39 1   
    38   33   40 1   
    39   34   35 1   
    40   34   36 1   
    41   41   42 1   
    42   41   45 1   
    43   42   43 1   
    44   42   46 1   
    45   42   47 1   
    46   43   44 2   
    47   43   48 1   
    48   48   49 1   
    49   48   56 1   
    50   49   50 1   
    51   49   52 1   
    52   49   57 1   
    53   50   51 2   
    54   50   62 1   
    55   52   53 1   
    56   52   58 1   
    57   52   59 1   
    58   53   54 1   
    59   53   55 2   
    60   54   60 1   
    61   54   61 1   
    62   62   63 1   
    63   62   66 1   
    64   63   64 1   
    65   63   67 1   
    66   63   68 1   
    67   64   65 2   
    68   64   69 1   
    69   69   70 1   
    70   69   76 1   
    71   70   71 1   
    72   70   73 1   
    73   70   77 1   
    74   71   72 2   
    75   71   83 1   
    76   73   74 1   
    77   73   75 1   
    78   73   78 1   
    79   74   80 1   
    80   74   81 1   
    81   74   82 1   
    82   75   79 1   
    83   83   84 1   
    84   83   91 1   
    85   84   85 1   
    86   84   87 1   
    87   84   92 1   
    88   85   86 2   
    89   85  102 1   
    90   87   88 1   
    91   87   89 1   
    92   87   93 1   
    93   88   90 1   
    94   88   94 1   
    95   88   95 1   
    96   89   96 1   
    97   89   97 1   
    98   89   98 1   
    99   90   99 1   
   100   90  100 1   
   101   90  101 1   
   102  102  103 1   
   103  102  110 1   
   104  103  104 1   
   105  103  106 1   
   106  103  111 1   
   107  104  105 2   
   108  104  114 1   
   109  106  107 1   
   110  106  112 1   
   111  106  113 1   
   112  107  108 1   
   113  107  109 1   
   114  114  115 1   
   115  114  125 1   
   116  115  116 1   
   117  115  118 1   
   118  115  126 1   
   119  116  117 2   
   120  116  134 1   
   121  118  119 1   
   122  118  127 1   
   123  118  128 1   
   124  119  120 ar  
   125  119  121 ar  
   126  120  122 ar  
   127  120  129 1   
   128  121  123 ar  
   129  121  130 1   
   130  122  124 ar  
   131  122  131 1   
   132  123  124 ar  
   133  123  132 1   
   134  124  133 1   
   135  134  135 1   
   136  134  140 1   
   137  135  136 1   
   138  135  138 1   
   139  135  141 1   
   140  136  137 2   
   141  136  148 1   
   142  138  139 1   
   143  138  142 1   
   144  138  143 1   
   145  139  140 1   
   146  139  144 1   
   147  139  145 1   
   148  140  146 1   
   149  140  147 1   
   150  148  149 1   
   151  148  157 1   
   152  149  150 1   
   153  149  152 1   
   154  149  158 1   
   155  150  151 2   
   156  150  163 1   
   157  152  153 1   
   158  152  159 1   
   159  152  160 1   
   160  153  154 1   
   161  153  161 1   
   162  153  162 1   
   163  154  155 1   
   164  154  156 1   
   165  163  164 1   
   166  163  168 1   
   167  164  165 1   
   168  164  166 1   
   169  164  167 1   
   170  170  171 1   
   171  170  172 1   
   172  173  174 1   
   173  173  175 1   
@<TRIPOS>SUBSTRUCTURE
     1 MOL         1 TEMP              0 ****  ****    0 ROOT
