@<TRIPOS>MOLECULE
MOL
  169   169     1     0     0
SMALL
resp


@<TRIPOS>ATOM
      1 C1          0.3240    3.9660    6.0370 c3        1 MOL     -0.392546
      2 C2         -0.0830    3.9200    4.5310 c         1 MOL      0.638283
      3 O1          0.7960    4.2220    3.6990 o         1 MOL     -0.567396
      4 H1         -0.4530    3.4920    6.6370 hc        1 MOL      0.097519
      5 H2          1.2650    3.4340    6.1760 hc        1 MOL      0.097519
      6 H3          0.4440    5.0030    6.3500 hc        1 MOL      0.097519
      7 N1         -1.1850    3.4120    4.1830 n         1 MOL     -0.477456
      8 C3         -1.5220    3.1150    2.7540 c3        1 MOL      0.025163
      9 C4         -1.5490    4.3810    1.8550 c         1 MOL      0.469435
     10 O2         -1.8920    5.4870    2.3030 o         1 MOL     -0.550737
     11 C5         -2.9130    2.4530    2.7610 c3        1 MOL     -0.202421
     12 C6         -3.0870    1.6200    1.4900 c         1 MOL      0.620673
     13 O3         -2.9320    2.1320    0.3730 o         1 MOL     -0.694391
     14 O4         -3.0360    0.3670    1.5380 o         1 MOL     -0.694391
     15 H4         -1.8120    3.1000    4.9160 hn        1 MOL      0.303430
     16 H5         -0.9240    2.2830    2.4030 h1        1 MOL      0.140112
     17 H6         -3.6280    3.2740    2.8340 hc        1 MOL      0.059645
     18 H7         -3.0730    1.8020    3.6230 hc        1 MOL      0.059645
     19 N2         -1.2910    4.1830    0.5750 n         1 MOL     -0.208370
     20 C7         -1.2110    5.2480   -0.4350 c3        1 MOL     -0.030295
     21 C8         -2.1450    5.0740   -1.6350 c         1 MOL      0.541353
     22 O5         -2.0290    5.8490   -2.6110 o         1 MOL     -0.579781
     23 C9          0.2440    5.3050   -0.8990 c3        1 MOL     -0.050927
     24 H8         -1.0430    3.2550    0.2560 hn        1 MOL      0.231629
     25 H9         -1.4900    6.2070    0.0190 h1        1 MOL      0.074006
     26 H10         0.4180    6.0510   -1.6780 hc        1 MOL      0.015686
     27 H11         0.9550    5.5090   -0.0980 hc        1 MOL      0.015686
     28 H12         0.5780    4.3800   -1.3620 hc        1 MOL      0.015686
     29 N3         -3.0990    4.1930   -1.5830 n         1 MOL     -0.296097
     30 C10        -4.2370    4.0460   -2.4760 c3        1 MOL      0.022633
     31 C11        -5.5540    3.7630   -1.6650 c         1 MOL      0.498582
     32 O6         -6.6100    4.2160   -2.1230 o         1 MOL     -0.551299
     33 C12        -3.9430    3.0120   -3.5850 c3        1 MOL      0.016536
     34 C13        -3.3910    1.7220   -3.0960 c         1 MOL      0.642935
     35 O7         -4.0620    1.0480   -2.2660 o         1 MOL     -0.668776
     36 O8         -2.2530    1.3700   -3.3730 o         1 MOL     -0.668776
     37 H13        -2.9990    3.4670   -0.8870 hn        1 MOL      0.087569
     38 H14        -4.4030    4.9810   -3.0040 h1        1 MOL      0.061392
     39 H15        -3.2110    3.3650   -4.3190 hc        1 MOL     -0.003500
     40 H16        -4.8470    2.7940   -4.1480 hc        1 MOL     -0.003500
     41 N4         -5.4330    3.0730   -0.5030 n         1 MOL     -0.443580
     42 C14        -6.5280    2.6290    0.3810 c3        1 MOL      0.019508
     43 C15        -7.1430    1.2620    0.0210 c         1 MOL      0.394056
     44 O9         -8.2010    0.8840    0.6240 o         1 MOL     -0.603595
     45 H17        -4.4960    2.8010   -0.2330 hn        1 MOL      0.307277
     46 H18        -7.3350    3.3690    0.4460 h1        1 MOL      0.071191
     47 H19        -6.2700    2.5470    1.4360 h1        1 MOL      0.071191
     48 N5         -6.5010    0.4800   -0.8340 n         1 MOL     -0.039685
     49 C16        -7.1000   -0.7660   -1.3900 c3        1 MOL     -0.288979
     50 C17        -7.3970   -2.0210   -0.5530 c         1 MOL      0.507798
     51 O10        -7.9390   -2.9830   -1.0030 o         1 MOL     -0.529841
     52 C18        -6.3170   -1.2100   -2.6440 c3        1 MOL     -0.058843
     53 C19        -5.0270   -1.9780   -2.2310 c         1 MOL      0.611836
     54 N6         -4.8100   -3.1190   -2.7450 n         1 MOL     -0.658078
     55 O11        -4.2570   -1.5850   -1.3910 o         1 MOL     -0.731808
     56 H20        -5.5570    0.6800   -1.1580 hn        1 MOL      0.118436
     57 H21        -8.0050   -0.3090   -1.7940 h1        1 MOL      0.158356
     58 H22        -6.0330   -0.3170   -3.2060 hc        1 MOL      0.046204
     59 H23        -6.8510   -1.7840   -3.4080 hc        1 MOL      0.046204
     60 H24        -5.5650   -3.5190   -3.2780 hn        1 MOL      0.338898
     61 H25        -4.1360   -3.6380   -2.1910 hn        1 MOL      0.338898
     62 N7         -6.8050   -1.9610    0.6470 n         1 MOL     -0.116886
     63 C20        -7.0110   -2.9430    1.6570 c3        1 MOL     -0.266408
     64 C21        -5.8160   -3.8750    1.7700 c         1 MOL      0.608479
     65 O12        -6.0300   -4.8850    2.3840 o         1 MOL     -0.581857
     66 H26        -6.2180   -1.1660    0.8560 hn        1 MOL      0.221341
     67 H27        -7.8070   -3.5820    1.2590 h1        1 MOL      0.117490
     68 H28        -7.2800   -2.5480    2.6400 h1        1 MOL      0.117490
     69 N8         -4.6870   -3.6440    1.1230 n         1 MOL     -0.337555
     70 C22        -3.5100   -4.4160    1.2300 c3        1 MOL     -0.134472
     71 C23        -2.2800   -3.4940    0.9910 c         1 MOL      0.627048
     72 O13        -2.4260   -2.3860    0.4650 o         1 MOL     -0.476461
     73 C24        -3.2480   -5.5040    0.2000 c3        1 MOL      0.400423
     74 C25        -4.2830   -6.6230    0.3310 c3        1 MOL     -0.493584
     75 O14        -3.4080   -5.1260   -1.1600 oh        1 MOL     -0.570258
     76 H29        -4.5430   -2.6870    0.8400 hn        1 MOL      0.264420
     77 H30        -3.3630   -4.9300    2.1820 h1        1 MOL      0.091064
     78 H31        -2.3040   -6.0220    0.3220 h1        1 MOL      0.010589
     79 H32        -2.7000   -4.5160   -1.3720 ho        1 MOL      0.369141
     80 H33        -4.2180   -7.4700   -0.3540 hc        1 MOL      0.135451
     81 H34        -4.2360   -6.8700    1.3880 hc        1 MOL      0.135451
     82 H35        -5.2010   -6.1270    0.0080 hc        1 MOL      0.135451
     83 N9         -1.0540   -3.9820    1.3710 n         1 MOL     -0.748646
     84 C26         0.1880   -3.0890    1.3250 c3        1 MOL      0.128480
     85 C27         1.0680   -3.3770    0.1270 c         1 MOL      0.587553
     86 O15         1.4520   -4.5160   -0.2000 o         1 MOL     -0.623428
     87 C28         1.1400   -3.1760    2.5640 c3        1 MOL      0.116554
     88 C29         0.3450   -3.4220    3.8820 c3        1 MOL      0.053346
     89 C30         2.2250   -2.1050    2.7860 c3        1 MOL     -0.110704
     90 C31         1.0400   -3.4100    5.1980 c3        1 MOL     -0.127436
     91 H36        -0.9840   -4.9490    1.6610 hn        1 MOL      0.346475
     92 H37        -0.0020   -2.0150    1.2540 h1        1 MOL      0.072417
     93 H38         1.7350   -4.0860    2.4420 hc        1 MOL     -0.039316
     94 H39        -0.1910   -4.3760    3.8590 hc        1 MOL     -0.003342
     95 H40        -0.4370   -2.6790    4.0160 hc        1 MOL     -0.003342
     96 H41         3.0550   -2.4430    3.4090 hc        1 MOL      0.023843
     97 H42         2.6590   -1.9830    1.8020 hc        1 MOL      0.023843
     98 H43         1.7350   -1.1910    3.1480 hc        1 MOL      0.023843
     99 H44         0.3870   -3.5970    6.0550 hc        1 MOL      0.019736
    100 H45         1.7430   -4.2400    5.1730 hc        1 MOL      0.019736
    101 H46         1.5410   -2.4490    5.3290 hc        1 MOL      0.019736
    102 N10         1.5360   -2.3090   -0.5110 n         1 MOL     -0.078777
    103 C32         2.4470   -2.2170   -1.6480 c3        1 MOL     -0.050706
    104 C33         3.8260   -1.7360   -1.2250 c         1 MOL      0.514722
    105 O16         3.8780   -1.1420   -0.1500 o         1 MOL     -0.298868
    106 C34         1.9350   -1.3140   -2.7490 c3        1 MOL     -0.175448
    107 C35         0.4620   -1.5820   -3.0490 c         1 MOL      0.802184
    108 O17        -0.4120   -1.0250   -2.3770 o         1 MOL     -0.725837
    109 O18         0.1800   -2.2980   -4.0030 o         1 MOL     -0.725837
    110 H47         1.1850   -1.3990   -0.2370 hn        1 MOL     -0.217693
    111 H48         2.6900   -3.1890   -2.0810 h1        1 MOL      0.075900
    112 H49         2.4990   -1.3480   -3.6840 hc        1 MOL      0.053295
    113 H50         2.1020   -0.3010   -2.3780 hc        1 MOL      0.053295
    114 N11         4.9120   -1.8260   -1.9560 n         1 MOL     -0.728535
    115 C36         6.2990   -1.6760   -1.4300 c3        1 MOL      0.478763
    116 C37         6.7490   -0.3860   -0.6310 c         1 MOL      0.274118
    117 O19         7.2460   -0.4750    0.5290 o         1 MOL     -0.448729
    118 C38         7.3540   -2.0430   -2.4890 c3        1 MOL     -0.258188
    119 C39         8.7790   -1.8130   -2.0280 ca        1 MOL      0.215467
    120 C40         9.2750   -2.6670   -1.0270 ca        1 MOL     -0.313145
    121 C41         9.5500   -0.7490   -2.5530 ca        1 MOL     -0.313145
    122 C42        10.6120   -2.5050   -0.6570 ca        1 MOL      0.033632
    123 C43        10.7800   -0.4870   -1.9650 ca        1 MOL      0.033632
    124 C44        11.3580   -1.3790   -1.1190 ca        1 MOL     -0.236071
    125 H51         4.9210   -2.2570   -2.8670 hn        1 MOL      0.343052
    126 H52         6.4030   -2.5590   -0.7870 h1        1 MOL      0.018066
    127 H53         7.0940   -1.4050   -3.3340 hc        1 MOL      0.054645
    128 H54         7.2770   -3.0630   -2.8660 hc        1 MOL      0.054645
    129 H55         8.6900   -3.4820   -0.6320 ha        1 MOL      0.155454
    130 H56         9.1150   -0.0390   -3.2450 ha        1 MOL      0.155454
    131 H57        11.1030   -3.1820    0.0280 ha        1 MOL      0.079998
    132 H58        11.3470    0.3720   -2.2850 ha        1 MOL      0.079998
    133 H59        12.3650   -1.1730   -0.7960 ha        1 MOL      0.121035
    134 N12         6.4830    0.8510   -1.2050 n         1 MOL     -0.022253
    135 C45         6.8990    2.0710   -0.5000 c3        1 MOL      0.037227
    136 C46         6.1420    2.3710    0.8100 c         1 MOL      0.349413
    137 O20         6.6110    2.7190    1.8550 o         1 MOL     -0.467070
    138 C47         6.6050    3.1560   -1.5970 c3        1 MOL      0.047477
    139 C48         6.6960    2.4390   -2.9510 c3        1 MOL     -0.193560
    140 C49         5.9900    1.1670   -2.5210 c3        1 MOL      0.036212
    141 H60         7.9820    2.1110   -0.3570 h1        1 MOL      0.036969
    142 H61         5.6360    3.6180   -1.4580 hc        1 MOL      0.020423
    143 H62         7.3120    3.9740   -1.4280 hc        1 MOL      0.020423
    144 H63         6.1660    2.9350   -3.7720 hc        1 MOL      0.053738
    145 H64         7.7180    2.1560   -3.2010 hc        1 MOL      0.053738
    146 H65         4.9120    1.2510   -2.5520 h1        1 MOL      0.046844
    147 H66         6.2450    0.3900   -3.2410 h1        1 MOL      0.046844
    148 N13         4.8250    1.9820    0.7820 n         1 MOL     -0.235007
    149 C50         3.9270    1.7510    1.9450 c3        1 MOL      0.064814
    150 C51         4.5770    0.6770    2.9010 c         1 MOL      0.328607
    151 O21         4.6310    0.8740    4.1130 o         1 MOL     -0.552980
    152 C52         2.5520    1.2120    1.4790 c3        1 MOL     -0.167410
    153 C53         1.9160    1.8400    0.1140 c3        1 MOL     -0.134879
    154 C54         0.5880    1.2490   -0.2940 c         1 MOL      0.293246
    155 O22         0.1510    0.2470    0.3780 o         1 MOL     -0.496537
    156 O23        -0.0690    1.7610   -1.2360 o         1 MOL     -0.496537
    157 H67         4.4210    1.6000   -0.0590 hn        1 MOL      0.065318
    158 H68         3.6940    2.6580    2.5020 h1        1 MOL      0.083767
    159 H69         1.8920    1.2750    2.3520 hc        1 MOL      0.109270
    160 H70         2.5700    0.1430    1.2690 hc        1 MOL      0.109270
    161 H71         2.6280    1.6530   -0.6970 hc        1 MOL      0.103143
    162 H72         1.8870    2.9210    0.2230 hc        1 MOL      0.103143
    163 N14         5.1510   -0.5030    2.4900 n         1 MOL      0.192619
    164 C55         5.7160   -1.5880    3.3470 c3        1 MOL     -0.151084
    165 H73         5.2730   -2.5430    3.0640 h1        1 MOL      0.052693
    166 H74         6.7970   -1.6350    3.2090 h1        1 MOL      0.052693
    167 H75         5.4920   -1.3800    4.3930 h1        1 MOL      0.052693
    168 H76         5.2580   -0.6100    1.4870 hn        1 MOL     -0.104007
    169 Ca1        -2.1420    0.0480   -0.9630 Ca        1 MOL      1.731239
@<TRIPOS>BOND
     1    1    2 1   
     2    1    4 1   
     3    1    5 1   
     4    1    6 1   
     5    2    3 2   
     6    2    7 1   
     7    7    8 1   
     8    7   15 1   
     9    8    9 1   
    10    8   11 1   
    11    8   16 1   
    12    9   10 2   
    13    9   19 1   
    14   11   12 1   
    15   11   17 1   
    16   11   18 1   
    17   12   13 1   
    18   12   14 1   
    19   19   20 1   
    20   19   24 1   
    21   20   21 1   
    22   20   23 1   
    23   20   25 1   
    24   21   22 2   
    25   21   29 1   
    26   23   26 1   
    27   23   27 1   
    28   23   28 1   
    29   29   30 1   
    30   29   37 1   
    31   30   31 1   
    32   30   33 1   
    33   30   38 1   
    34   31   32 2   
    35   31   41 1   
    36   33   34 1   
    37   33   39 1   
    38   33   40 1   
    39   34   35 1   
    40   34   36 1   
    41   41   42 1   
    42   41   45 1   
    43   42   43 1   
    44   42   46 1   
    45   42   47 1   
    46   43   44 2   
    47   43   48 1   
    48   48   49 1   
    49   48   56 1   
    50   49   50 1   
    51   49   52 1   
    52   49   57 1   
    53   50   51 2   
    54   50   62 1   
    55   52   53 1   
    56   52   58 1   
    57   52   59 1   
    58   53   54 1   
    59   53   55 2   
    60   54   60 1   
    61   54   61 1   
    62   62   63 1   
    63   62   66 1   
    64   63   64 1   
    65   63   67 1   
    66   63   68 1   
    67   64   65 2   
    68   64   69 1   
    69   69   70 1   
    70   69   76 1   
    71   70   71 1   
    72   70   73 1   
    73   70   77 1   
    74   71   72 2   
    75   71   83 1   
    76   73   74 1   
    77   73   75 1   
    78   73   78 1   
    79   74   80 1   
    80   74   81 1   
    81   74   82 1   
    82   75   79 1   
    83   83   84 1   
    84   83   91 1   
    85   84   85 1   
    86   84   87 1   
    87   84   92 1   
    88   85   86 2   
    89   85  102 1   
    90   87   88 1   
    91   87   89 1   
    92   87   93 1   
    93   88   90 1   
    94   88   94 1   
    95   88   95 1   
    96   89   96 1   
    97   89   97 1   
    98   89   98 1   
    99   90   99 1   
   100   90  100 1   
   101   90  101 1   
   102  102  103 1   
   103  102  110 1   
   104  103  104 1   
   105  103  106 1   
   106  103  111 1   
   107  104  105 2   
   108  104  114 1   
   109  106  107 1   
   110  106  112 1   
   111  106  113 1   
   112  107  108 1   
   113  107  109 1   
   114  114  115 1   
   115  114  125 1   
   116  115  116 1   
   117  115  118 1   
   118  115  126 1   
   119  116  117 2   
   120  116  134 1   
   121  118  119 1   
   122  118  127 1   
   123  118  128 1   
   124  119  120 ar  
   125  119  121 ar  
   126  120  122 ar  
   127  120  129 1   
   128  121  123 ar  
   129  121  130 1   
   130  122  124 ar  
   131  122  131 1   
   132  123  124 ar  
   133  123  132 1   
   134  124  133 1   
   135  134  135 1   
   136  134  140 1   
   137  135  136 1   
   138  135  138 1   
   139  135  141 1   
   140  136  137 2   
   141  136  148 1   
   142  138  139 1   
   143  138  142 1   
   144  138  143 1   
   145  139  140 1   
   146  139  144 1   
   147  139  145 1   
   148  140  146 1   
   149  140  147 1   
   150  148  149 1   
   151  148  157 1   
   152  149  150 1   
   153  149  152 1   
   154  149  158 1   
   155  150  151 2   
   156  150  163 1   
   157  152  153 1   
   158  152  159 1   
   159  152  160 1   
   160  153  154 1   
   161  153  161 1   
   162  153  162 1   
   163  154  155 1   
   164  154  156 1   
   165  163  164 1   
   166  163  168 1   
   167  164  165 1   
   168  164  166 1   
   169  164  167 1   
@<TRIPOS>SUBSTRUCTURE
     1 MOL         1 TEMP              0 ****  ****    0 ROOT
