@<TRIPOS>MOLECULE
MOL
  189   185     1     0     0
SMALL
resp


@<TRIPOS>ATOM
      1 C1          0.5270    2.5060    5.0840 c3        1 MOL     -0.372374
      2 C2         -0.1100    2.5640    3.6650 c         1 MOL      0.623073
      3 O1          0.6350    2.7730    2.7090 o         1 MOL     -0.601731
      4 H1         -0.2430    2.2710    5.8180 hc        1 MOL      0.101818
      5 H2          1.2960    1.7340    5.1060 hc        1 MOL      0.101818
      6 H3          0.9730    3.4720    5.3230 hc        1 MOL      0.101818
      7 N1         -1.4600    2.2220    3.5930 n         1 MOL     -0.593913
      8 C3         -2.2150    1.8860    2.3620 c3        1 MOL      0.493186
      9 C4         -2.6310    3.1220    1.6410 c         1 MOL      0.172010
     10 O2         -3.8020    3.4040    1.5170 o         1 MOL     -0.382660
     11 C5         -3.3660    0.9910    2.7530 c3        1 MOL     -0.276591
     12 C6         -4.1740    0.4150    1.5720 c         1 MOL      0.620940
     13 O3         -3.6330    0.4950    0.4720 o         1 MOL     -0.591163
     14 O4         -5.2750   -0.1050    1.8390 o         1 MOL     -0.591163
     15 H4         -1.9590    2.2290    4.4710 hn        1 MOL      0.308080
     16 H5         -1.6100    1.3180    1.6470 h1        1 MOL     -0.064306
     17 H6         -4.0210    1.5510    3.4180 hc        1 MOL      0.059597
     18 H7         -2.9890    0.1830    3.3770 hc        1 MOL      0.059597
     19 N2         -1.7080    3.9070    1.0640 n         1 MOL     -0.238780
     20 C7         -2.0160    5.2210    0.4850 c3        1 MOL      0.076805
     21 C8         -3.0450    5.1480   -0.6620 c         1 MOL      0.408486
     22 O5         -3.7700    6.0930   -0.9180 o         1 MOL     -0.556609
     23 C9         -0.7860    6.0950    0.1080 c3        1 MOL     -0.092028
     24 C10         0.4350    6.2550    1.1010 c3        1 MOL     -0.068510
     25 C11         0.0950    6.8420    2.5260 c3        1 MOL     -0.000511
     26 C12         1.3190    7.4970    3.2370 c3        1 MOL     -0.098075
     27 N3          2.2390    6.5440    3.9010 n4        1 MOL     -0.327201
     28 H8         -0.7570    3.6180    1.2230 hn        1 MOL      0.220961
     29 H9         -2.4580    5.8900    1.2180 h1        1 MOL      0.041159
     30 H10        -1.1180    7.1060   -0.1320 hc        1 MOL      0.048593
     31 H11        -0.3900    5.6640   -0.8090 hc        1 MOL      0.048593
     32 H12         1.1150    6.9870    0.6600 hc        1 MOL      0.045604
     33 H13         1.0410    5.3540    1.0210 hc        1 MOL      0.045604
     34 H14        -0.3280    6.1040    3.2080 hc        1 MOL      0.057866
     35 H15        -0.6860    7.6010    2.4380 hc        1 MOL      0.057866
     36 H16         0.9290    8.2230    3.9400 hx        1 MOL      0.105853
     37 H17         1.9220    7.9120    2.4270 hx        1 MOL      0.105853
     38 H18         1.8650    6.3090    4.8110 hn        1 MOL      0.329739
     39 H19         2.3590    5.7440    3.3090 hn        1 MOL      0.329739
     40 H20         3.1260    7.0090    4.0210 hn        1 MOL      0.329739
     41 N4         -3.1640    4.0200   -1.3940 n         1 MOL     -0.223432
     42 C13        -4.1700    3.8230   -2.5060 c3        1 MOL      0.139399
     43 C14        -5.4840    3.1290   -2.0190 c         1 MOL      0.322113
     44 O6         -6.3430    2.8870   -2.8820 o         1 MOL     -0.491005
     45 C15        -3.5320    3.2510   -3.6970 c3        1 MOL     -0.383466
     46 C16        -2.5700    2.0590   -3.6110 c         1 MOL      0.882785
     47 O7         -2.5960    1.3570   -2.5670 o         1 MOL     -0.725611
     48 O8         -1.6530    1.8780   -4.4420 o         1 MOL     -0.725611
     49 H21        -2.5450    3.2510   -1.2250 hn        1 MOL      0.157190
     50 H22        -4.5900    4.7740   -2.8260 h1        1 MOL      0.096704
     51 H23        -3.0240    4.1050   -4.1370 hc        1 MOL      0.083220
     52 H24        -4.3400    2.9130   -4.3560 hc        1 MOL      0.083220
     53 N5         -5.6410    2.7830   -0.7450 n         1 MOL     -0.029137
     54 C17        -6.9510    2.3300   -0.2140 c3        1 MOL     -0.099755
     55 C18        -7.5490    1.0730   -0.7930 c         1 MOL      0.502189
     56 O9         -8.7210    1.0730   -1.1840 o         1 MOL     -0.578997
     57 H25        -4.8740    2.9060   -0.1000 hn        1 MOL      0.056817
     58 H26        -7.6310    3.1510   -0.4420 h1        1 MOL      0.063101
     59 H27        -6.8730    2.3150    0.8770 h1        1 MOL      0.063101
     60 N6         -6.7810    0.0060   -0.8770 n         1 MOL     -0.197985
     61 C19        -7.0990   -1.2990   -1.5190 c3        1 MOL      0.047048
     62 C20        -7.1320   -2.4890   -0.5460 c         1 MOL      0.325235
     63 O10        -7.5050   -3.5910   -0.8940 o         1 MOL     -0.519184
     64 C21        -6.1280   -1.4740   -2.6450 c3        1 MOL     -0.143336
     65 C22        -4.5990   -1.5180   -2.3250 c         1 MOL      0.736337
     66 O11        -4.2620   -1.8510   -1.1790 o         1 MOL     -0.724789
     67 O12        -3.7730   -1.2470   -3.1940 o         1 MOL     -0.724789
     68 H28        -5.8200    0.1550   -0.6030 hn        1 MOL      0.087779
     69 H29        -8.0420   -1.2540   -2.0730 h1        1 MOL      0.102071
     70 H30        -6.3060   -0.6810   -3.3800 hc        1 MOL      0.048522
     71 H31        -6.3650   -2.4280   -3.0970 hc        1 MOL      0.048522
     72 N7         -6.6310   -2.3510    0.6770 n         1 MOL     -0.146316
     73 C23        -6.6140   -3.4410    1.6970 c3        1 MOL     -0.133451
     74 C24        -5.4130   -4.3460    1.5530 c         1 MOL      0.563929
     75 O13        -5.4460   -5.4790    2.0180 o         1 MOL     -0.565169
     76 H32        -6.1760   -1.4870    0.9670 hn        1 MOL      0.122139
     77 H33        -7.5440   -4.0060    1.6410 h1        1 MOL      0.091349
     78 H34        -6.6800   -2.9580    2.6700 h1        1 MOL      0.091349
     79 N8         -4.3630   -3.7420    0.9250 n         1 MOL     -0.395157
     80 C25        -3.1140   -4.5170    0.7900 c3        1 MOL     -0.185334
     81 C26        -1.8500   -3.6740    0.9650 c         1 MOL      0.692983
     82 O14        -1.8970   -2.5150    0.5420 o         1 MOL     -0.642831
     83 C27        -2.9950   -5.2630   -0.5140 c3        1 MOL      0.661258
     84 C28        -3.4170   -6.7260   -0.3440 c3        1 MOL     -0.462962
     85 O15        -3.3700   -4.6100   -1.6600 oh        1 MOL     -0.685733
     86 H35        -4.5610   -2.9410    0.3420 hn        1 MOL      0.295171
     87 H36        -3.0110   -5.2570    1.5820 h1        1 MOL      0.099629
     88 H37        -1.9120   -5.3400   -0.6380 h1        1 MOL     -0.086594
     89 H38        -3.9080   -3.8450   -1.4530 ho        1 MOL      0.448260
     90 H39        -2.7210   -7.2510    0.3090 hc        1 MOL      0.102600
     91 H40        -4.3680   -6.8530    0.1750 hc        1 MOL      0.102600
     92 H41        -3.4490   -7.2260   -1.3150 hc        1 MOL      0.102600
     93 N9         -0.7630   -4.1300    1.5750 n         1 MOL     -0.650664
     94 C29         0.4750   -3.3110    1.7860 c3        1 MOL      0.013572
     95 C30         1.6330   -3.8770    0.9610 c         1 MOL      0.521234
     96 O16         2.1050   -4.9600    1.2010 o         1 MOL     -0.544894
     97 C31         0.8320   -3.2300    3.2210 c3        1 MOL      0.357021
     98 C32        -0.4110   -3.0300    4.1750 c3        1 MOL      0.094850
     99 C33         1.8260   -2.0150    3.2020 c3        1 MOL     -0.694025
    100 C34        -0.1210   -2.7090    5.6680 c3        1 MOL     -0.331218
    101 H42        -0.7490   -5.0370    2.0160 hn        1 MOL      0.310525
    102 H43         0.3120   -2.3050    1.4040 h1        1 MOL      0.033489
    103 H44         1.3890   -4.1090    3.5380 hc        1 MOL     -0.038137
    104 H45        -1.0170   -3.9400    4.1750 hc        1 MOL      0.012242
    105 H46        -1.0130   -2.2250    3.7540 hc        1 MOL      0.012242
    106 H47         2.7250   -2.2270    2.6350 hc        1 MOL      0.136818
    107 H48         1.3500   -1.0760    2.9290 hc        1 MOL      0.136818
    108 H49         2.0770   -1.8810    4.2540 hc        1 MOL      0.136818
    109 H50         0.5090   -3.5100    6.0590 hc        1 MOL      0.079422
    110 H51         0.3410   -1.7580    5.9330 hc        1 MOL      0.079422
    111 H52        -1.0930   -2.5690    6.1430 hc        1 MOL      0.079422
    112 N10         2.1750   -2.9580    0.1070 n         1 MOL     -0.131658
    113 C35         3.2380   -3.3050   -0.8750 c3        1 MOL     -0.105515
    114 C36         4.6310   -3.0140   -0.2090 c         1 MOL      0.492209
    115 O17         4.7640   -2.4240    0.8340 o         1 MOL     -0.431661
    116 C37         3.1410   -2.5890   -2.2100 c3        1 MOL      0.446842
    117 C38         1.9600   -3.0830   -2.9940 c3        1 MOL     -0.625696
    118 O18         2.9870   -1.1930   -2.0470 oh        1 MOL     -0.598153
    119 H53         1.7310   -2.0570   -0.0080 hn        1 MOL      0.147953
    120 H54         3.2820   -4.3790   -1.0110 h1        1 MOL      0.073740
    121 H55         4.0320   -2.8840   -2.7690 h1        1 MOL     -0.023923
    122 H56         2.2660   -1.0750   -1.4230 ho        1 MOL      0.308802
    123 H57         1.0500   -3.2880   -2.4300 hc        1 MOL      0.156066
    124 H58         1.8340   -2.5140   -3.9080 hc        1 MOL      0.156066
    125 H59         2.2550   -4.1040   -3.2290 hc        1 MOL      0.156066
    126 N11         5.7580   -3.5310   -0.8120 n         1 MOL     -0.459344
    127 C39         7.2060   -3.2310   -0.4270 c3        1 MOL      0.013351
    128 C40         7.5190   -1.7220   -0.3240 c         1 MOL      0.228736
    129 O19         8.3790   -1.2980    0.5180 o         1 MOL     -0.482254
    130 C41         8.2260   -3.8660   -1.4250 c3        1 MOL      0.503234
    131 C42         9.5960   -4.0200   -0.7830 c3        1 MOL     -0.483922
    132 O20         7.7900   -5.1750   -1.8260 oh        1 MOL     -0.713553
    133 H60         5.6360   -4.1450   -1.6060 hn        1 MOL      0.276407
    134 H61         7.4150   -3.6770    0.5350 h1        1 MOL      0.118750
    135 H62         8.2510   -3.2250   -2.3130 h1        1 MOL     -0.040326
    136 H63         8.3920   -5.9160   -1.7380 ho        1 MOL      0.442495
    137 H64        10.2030   -4.7780   -1.2840 hc        1 MOL      0.127129
    138 H65        10.1410   -3.0660   -0.7960 hc        1 MOL      0.127129
    139 H66         9.3420   -4.4370    0.1860 hc        1 MOL      0.127129
    140 N12         6.8630   -0.8780   -1.1170 n         1 MOL     -0.105479
    141 C43         7.0720    0.5820   -1.2000 c3        1 MOL     -0.017667
    142 C44         6.4030    1.2770   -0.0080 c         1 MOL      0.313999
    143 O21         6.9680    2.2920    0.4980 o         1 MOL     -0.531542
    144 C45         6.7110    1.1270   -2.5150 c3        1 MOL     -0.081796
    145 C46         7.2360    2.5180   -2.8980 c3        1 MOL     -0.108919
    146 C47         6.8690    2.8400   -4.3780 c3        1 MOL      0.140559
    147 C48         7.1870    4.2390   -4.8610 c3        1 MOL     -0.167837
    148 N13         6.7630    5.3320   -3.9140 n4        1 MOL     -0.157599
    149 H67         6.2670   -1.2230   -1.8590 hn        1 MOL      0.166072
    150 H68         8.1360    0.7780   -1.0480 h1        1 MOL      0.097387
    151 H69         5.6180    1.1410   -2.4610 hc        1 MOL      0.037917
    152 H70         7.1480    0.5340   -3.3130 hc        1 MOL      0.037917
    153 H71         8.3230    2.5800   -2.8990 hc        1 MOL      0.039362
    154 H72         7.0010    3.3350   -2.2090 hc        1 MOL      0.039362
    155 H73         5.7970    2.6650   -4.4850 hc        1 MOL      0.032044
    156 H74         7.2460    2.0230   -4.9910 hc        1 MOL      0.032044
    157 H75         6.7700    4.3240   -5.8670 hx        1 MOL      0.120487
    158 H76         8.2710    4.2490   -4.9000 hx        1 MOL      0.120487
    159 H77         7.5020    5.4690   -3.2450 hn        1 MOL      0.268637
    160 H78         6.8060    6.2470   -4.3420 hn        1 MOL      0.268637
    161 H79         5.8320    5.2960   -3.5220 hn        1 MOL      0.268637
    162 N14         5.1840    0.9080    0.2380 n         1 MOL      0.014266
    163 C49         4.2570    1.4400    1.2510 c3        1 MOL     -0.314003
    164 C50         4.8350    1.3250    2.7070 c         1 MOL      0.535563
    165 O22         4.6230    2.1330    3.5810 o         1 MOL     -0.558546
    166 C51         2.8630    0.6390    1.1510 c3        1 MOL     -0.157643
    167 C52         1.9970    1.3100    0.0140 c3        1 MOL      0.042260
    168 C53         0.6910    0.6390   -0.2820 c         1 MOL      0.780910
    169 O23         0.5500   -0.6030   -0.3310 o         1 MOL     -0.680484
    170 O24        -0.2850    1.3450   -0.5050 o         1 MOL     -0.680484
    171 H80         4.8060    0.1320   -0.2800 hn        1 MOL      0.222557
    172 H81         4.0430    2.4700    0.9720 h1        1 MOL      0.109588
    173 H82         2.3010    0.7280    2.0790 hc        1 MOL      0.146342
    174 H83         3.0610   -0.4120    0.9810 hc        1 MOL      0.146342
    175 H84         2.5220    1.2320   -0.9390 hc        1 MOL     -0.038516
    176 H85         1.7630    2.3620    0.1610 hc        1 MOL     -0.038516
    177 N15         5.6200    0.2320    2.9390 n         1 MOL     -0.150346
    178 C54         6.4170    0.0060    4.1200 c3        1 MOL     -0.517963
    179 H86         5.7610   -0.1130    4.9830 h1        1 MOL      0.176061
    180 H87         7.0120   -0.8980    3.9900 h1        1 MOL      0.176061
    181 H88         7.0790    0.8570    4.2810 h1        1 MOL      0.176061
    182 H89         5.6840   -0.4900    2.2290 hn        1 MOL      0.238330
    183 Ca1        -1.9630   -0.5330   -1.1130 Ca        1 MOL      1.706466
    184 O25        -0.2830   -0.1330   -3.2160 oh        1 MOL     -0.819247
    185 H90        -0.7460    0.5190   -3.7390 ho        1 MOL      0.388266
    186 H91         0.0380   -0.7730   -3.8490 ho        1 MOL      0.388266
    187 O26        -1.2620   -2.9020   -2.3500 oh        1 MOL     -0.819247
    188 H92        -1.8450   -3.6170   -2.1020 ho        1 MOL      0.388266
    189 H93        -1.2070   -2.9540   -3.3030 ho        1 MOL      0.388266
@<TRIPOS>BOND
     1    1    2 1   
     2    1    4 1   
     3    1    5 1   
     4    1    6 1   
     5    2    3 2   
     6    2    7 1   
     7    7    8 1   
     8    7   15 1   
     9    8    9 1   
    10    8   11 1   
    11    8   16 1   
    12    9   10 2   
    13    9   19 1   
    14   11   12 1   
    15   11   17 1   
    16   11   18 1   
    17   12   13 1   
    18   12   14 1   
    19   19   20 1   
    20   19   28 1   
    21   20   21 1   
    22   20   23 1   
    23   20   29 1   
    24   21   22 2   
    25   21   41 1   
    26   23   24 1   
    27   23   30 1   
    28   23   31 1   
    29   24   25 1   
    30   24   32 1   
    31   24   33 1   
    32   25   26 1   
    33   25   34 1   
    34   25   35 1   
    35   26   27 1   
    36   26   36 1   
    37   26   37 1   
    38   27   38 1   
    39   27   39 1   
    40   27   40 1   
    41   41   42 1   
    42   41   49 1   
    43   42   43 1   
    44   42   45 1   
    45   42   50 1   
    46   43   44 2   
    47   43   53 1   
    48   45   46 1   
    49   45   51 1   
    50   45   52 1   
    51   46   47 1   
    52   46   48 1   
    53   53   54 1   
    54   53   57 1   
    55   54   55 1   
    56   54   58 1   
    57   54   59 1   
    58   55   56 2   
    59   55   60 1   
    60   60   61 1   
    61   60   68 1   
    62   61   62 1   
    63   61   64 1   
    64   61   69 1   
    65   62   63 2   
    66   62   72 1   
    67   64   65 1   
    68   64   70 1   
    69   64   71 1   
    70   65   66 1   
    71   65   67 1   
    72   72   73 1   
    73   72   76 1   
    74   73   74 1   
    75   73   77 1   
    76   73   78 1   
    77   74   75 2   
    78   74   79 1   
    79   79   80 1   
    80   79   86 1   
    81   80   81 1   
    82   80   83 1   
    83   80   87 1   
    84   81   82 2   
    85   81   93 1   
    86   83   84 1   
    87   83   85 1   
    88   83   88 1   
    89   84   90 1   
    90   84   91 1   
    91   84   92 1   
    92   85   89 1   
    93   93   94 1   
    94   93  101 1   
    95   94   95 1   
    96   94   97 1   
    97   94  102 1   
    98   95   96 2   
    99   95  112 1   
   100   97   98 1   
   101   97   99 1   
   102   97  103 1   
   103   98  100 1   
   104   98  104 1   
   105   98  105 1   
   106   99  106 1   
   107   99  107 1   
   108   99  108 1   
   109  100  109 1   
   110  100  110 1   
   111  100  111 1   
   112  112  113 1   
   113  112  119 1   
   114  113  114 1   
   115  113  116 1   
   116  113  120 1   
   117  114  115 2   
   118  114  126 1   
   119  116  117 1   
   120  116  118 1   
   121  116  121 1   
   122  117  123 1   
   123  117  124 1   
   124  117  125 1   
   125  118  122 1   
   126  126  127 1   
   127  126  133 1   
   128  127  128 1   
   129  127  130 1   
   130  127  134 1   
   131  128  129 2   
   132  128  140 1   
   133  130  131 1   
   134  130  132 1   
   135  130  135 1   
   136  131  137 1   
   137  131  138 1   
   138  131  139 1   
   139  132  136 1   
   140  140  141 1   
   141  140  149 1   
   142  141  142 1   
   143  141  144 1   
   144  141  150 1   
   145  142  143 2   
   146  142  162 1   
   147  144  145 1   
   148  144  151 1   
   149  144  152 1   
   150  145  146 1   
   151  145  153 1   
   152  145  154 1   
   153  146  147 1   
   154  146  155 1   
   155  146  156 1   
   156  147  148 1   
   157  147  157 1   
   158  147  158 1   
   159  148  159 1   
   160  148  160 1   
   161  148  161 1   
   162  162  163 1   
   163  162  171 1   
   164  163  164 1   
   165  163  166 1   
   166  163  172 1   
   167  164  165 2   
   168  164  177 1   
   169  166  167 1   
   170  166  173 1   
   171  166  174 1   
   172  167  168 1   
   173  167  175 1   
   174  167  176 1   
   175  168  169 1   
   176  168  170 1   
   177  177  178 1   
   178  177  182 1   
   179  178  179 1   
   180  178  180 1   
   181  178  181 1   
   182  184  185 1   
   183  184  186 1   
   184  187  188 1   
   185  187  189 1   
@<TRIPOS>SUBSTRUCTURE
     1 MOL         1 TEMP              0 ****  ****    0 ROOT
