@<TRIPOS>MOLECULE
MOL
  189   185     1     0     0
SMALL
resp


@<TRIPOS>ATOM
      1 C1         -0.6360    2.5380    5.6410 c3        1 MOL     -0.220799
      2 C2         -0.8850    2.0000    4.2280 c         1 MOL      0.602339
      3 O1         -0.0400    2.1220    3.3130 o         1 MOL     -0.592964
      4 H1         -0.8760    1.7660    6.3710 hc        1 MOL      0.058199
      5 H2          0.4120    2.8200    5.7420 hc        1 MOL      0.058199
      6 H3         -1.2660    3.4100    5.8150 hc        1 MOL      0.058199
      7 N1         -2.1130    1.5870    4.0490 n         1 MOL     -0.538385
      8 C3         -2.7160    1.2500    2.6870 c3        1 MOL      0.076329
      9 C4         -3.0590    2.6070    2.0060 c         1 MOL      0.479762
     10 O2         -4.1790    3.0580    1.8330 o         1 MOL     -0.487102
     11 C5         -3.9040    0.3440    2.8250 c3        1 MOL     -0.066434
     12 C6         -4.6330    0.1210    1.4860 c         1 MOL      0.709929
     13 O3         -5.8750    0.0430    1.5550 o         1 MOL     -0.644208
     14 O4         -3.9990    0.0250    0.3690 o         1 MOL     -0.644208
     15 H4         -2.6750    1.7670    4.8650 hn        1 MOL      0.329928
     16 H5         -1.9490    0.6800    2.1690 h1        1 MOL     -0.030384
     17 H6         -4.5540    0.8590    3.5220 hc        1 MOL      0.013918
     18 H7         -3.5260   -0.6130    3.1780 hc        1 MOL      0.013918
     19 N2         -2.0430    3.2980    1.5510 n         1 MOL     -0.205506
     20 C7         -1.8960    4.7770    1.3320 c3        1 MOL     -0.057555
     21 C8         -2.8340    5.2580    0.2140 c         1 MOL      0.608273
     22 O5         -3.2310    6.3890    0.2730 o         1 MOL     -0.589722
     23 C9         -0.4340    5.1460    1.2010 c3        1 MOL      0.040138
     24 C10        -0.2200    6.6140    1.5130 c3        1 MOL     -0.175104
     25 C11         1.2160    7.0990    1.6600 c3        1 MOL     -0.043765
     26 C12         2.0470    7.0450    0.3710 c3        1 MOL      0.129216
     27 N3          3.3800    7.5580    0.5750 n4        1 MOL     -0.391956
     28 H8         -1.2000    2.7520    1.4060 hn        1 MOL      0.241231
     29 H9         -2.2140    5.2520    2.2580 h1        1 MOL      0.058622
     30 H10        -0.1020    4.8570    0.1930 hc        1 MOL      0.030048
     31 H11         0.1380    4.5750    1.9290 hc        1 MOL      0.030048
     32 H12        -0.6270    6.7830    2.5170 hc        1 MOL      0.078840
     33 H13        -0.6220    7.2140    0.6940 hc        1 MOL      0.078840
     34 H14         1.6960    6.4350    2.3810 hc        1 MOL      0.039119
     35 H15         1.3350    8.1160    2.0470 hc        1 MOL      0.039119
     36 H16         1.4980    7.6060   -0.3810 hx        1 MOL      0.057573
     37 H17         2.0890    6.0450   -0.0440 hx        1 MOL      0.057573
     38 H18         4.1000    6.8780    0.7690 hn        1 MOL      0.327688
     39 H19         3.6560    8.1160   -0.2190 hn        1 MOL      0.327688
     40 H20         3.3900    8.1810    1.3670 hn        1 MOL      0.327688
     41 N4         -3.2810    4.3040   -0.6760 n         1 MOL     -0.386137
     42 C13        -4.1050    4.6130   -1.8200 c3        1 MOL      0.110116
     43 C14        -5.5200    3.8410   -1.7910 c         1 MOL      0.298412
     44 O6         -6.2820    4.0400   -2.7120 o         1 MOL     -0.494246
     45 C15        -3.3610    4.2640   -3.1180 c3        1 MOL     -0.167943
     46 C16        -2.5630    2.9690   -3.1150 c         1 MOL      0.833129
     47 O7         -1.6000    2.8910   -3.8810 o         1 MOL     -0.739991
     48 O8         -2.8860    2.0600   -2.2850 o         1 MOL     -0.739991
     49 H21        -2.9000    3.3690   -0.5980 hn        1 MOL      0.165493
     50 H22        -4.4140    5.6510   -1.9310 h1        1 MOL      0.071092
     51 H23        -2.6430    5.0870   -3.1620 hc        1 MOL      0.027754
     52 H24        -4.0720    4.3680   -3.9410 hc        1 MOL      0.027754
     53 N5         -5.8060    3.0110   -0.7990 n         1 MOL      0.158582
     54 C17        -7.0700    2.4350   -0.5740 c3        1 MOL     -0.379745
     55 C18        -7.2680    1.2020   -1.5330 c         1 MOL      0.724281
     56 O9         -7.9650    1.2660   -2.5350 o         1 MOL     -0.557082
     57 H25        -5.1150    2.9390   -0.0610 hn        1 MOL      0.028220
     58 H26        -7.8580    3.1330   -0.8430 h1        1 MOL      0.117658
     59 H27        -7.1750    2.1210    0.4650 h1        1 MOL      0.117658
     60 N6         -6.6710    0.0690   -1.2040 n         1 MOL     -0.424234
     61 C19        -7.0010   -1.2520   -1.7660 c3        1 MOL      0.114880
     62 C20        -7.1030   -2.4640   -0.8380 c         1 MOL      0.413458
     63 O10        -7.5560   -3.5030   -1.3520 o         1 MOL     -0.520767
     64 C21        -6.0730   -1.4960   -2.9990 c3        1 MOL     -0.305051
     65 C22        -4.6210   -1.4840   -2.6360 c         1 MOL      0.778993
     66 O11        -4.2320   -2.0890   -1.6160 o         1 MOL     -0.674661
     67 O12        -3.8370   -0.7170   -3.2960 o         1 MOL     -0.674661
     68 H28        -5.8960    0.1190   -0.5540 hn        1 MOL      0.078340
     69 H29        -8.0400   -1.0740   -2.0470 h1        1 MOL      0.078885
     70 H30        -6.1960   -0.6110   -3.6200 hc        1 MOL      0.090391
     71 H31        -6.4070   -2.3890   -3.5280 hc        1 MOL      0.090391
     72 N7         -6.8530   -2.2960    0.4480 n         1 MOL     -0.282218
     73 C23        -6.7890   -3.3690    1.3950 c3        1 MOL     -0.161310
     74 C24        -5.5230   -4.1400    1.4680 c         1 MOL      0.549652
     75 O13        -5.5140   -5.2010    2.1620 o         1 MOL     -0.611303
     76 H32        -6.6140   -1.3640    0.7530 hn        1 MOL      0.283274
     77 H33        -7.5430   -4.0810    1.0540 h1        1 MOL      0.102094
     78 H34        -6.9760   -3.1050    2.4360 h1        1 MOL      0.102094
     79 N8         -4.4930   -3.7270    0.7590 n         1 MOL     -0.271944
     80 C25        -3.2040   -4.4510    0.6490 c3        1 MOL     -0.060158
     81 C26        -2.0100   -3.4970    0.8330 c         1 MOL      0.449576
     82 O14        -2.1340   -2.3030    0.4900 o         1 MOL     -0.541668
     83 C27        -3.1590   -5.2990   -0.6410 c3        1 MOL      0.471375
     84 C28        -4.0440   -6.4980   -0.4730 c3        1 MOL     -0.370624
     85 O15        -3.5370   -4.7520   -1.9270 oh        1 MOL     -0.620873
     86 H35        -4.7350   -2.9890    0.1010 hn        1 MOL      0.214657
     87 H36        -3.1740   -5.1860    1.4610 h1        1 MOL      0.080950
     88 H37        -2.1540   -5.7300   -0.6470 h1        1 MOL     -0.066387
     89 H38        -3.5860   -3.8290   -1.6970 ho        1 MOL      0.431607
     90 H39        -3.8820   -6.8990    0.5250 hc        1 MOL      0.088947
     91 H40        -5.1200   -6.3330   -0.5170 hc        1 MOL      0.088947
     92 H41        -3.7160   -7.2320   -1.2040 hc        1 MOL      0.088947
     93 N9         -0.8100   -3.9990    1.2050 n         1 MOL     -0.402191
     94 C29         0.4770   -3.3270    1.4150 c3        1 MOL      0.100056
     95 C30         1.4870   -3.7270    0.3950 c         1 MOL      0.275560
     96 O16         1.7600   -4.8960    0.1410 o         1 MOL     -0.497420
     97 C31         0.8280   -3.5800    2.8940 c3        1 MOL      0.091591
     98 C32        -0.1480   -3.0150    4.0100 c3        1 MOL     -0.323650
     99 C33         2.2870   -3.2200    3.2340 c3        1 MOL     -0.010064
    100 C34        -0.5090   -1.5070    3.8340 c3        1 MOL      0.091327
    101 H42        -0.8240   -4.9650    1.5110 hn        1 MOL      0.259993
    102 H43         0.3290   -2.2430    1.4070 h1        1 MOL      0.068377
    103 H44         0.8640   -4.6470    3.0720 hc        1 MOL      0.015749
    104 H45         0.2940   -3.1080    4.9960 hc        1 MOL      0.087890
    105 H46        -1.1220   -3.4860    3.8750 hc        1 MOL      0.087890
    106 H47         2.5470   -3.6260    4.2110 hc        1 MOL     -0.009671
    107 H48         2.9920   -3.6680    2.5350 hc        1 MOL     -0.009671
    108 H49         2.5120   -2.1520    3.1810 hc        1 MOL     -0.009671
    109 H50        -0.9410   -1.1840    4.7900 hc        1 MOL      0.013305
    110 H51         0.3540   -0.8890    3.5900 hc        1 MOL      0.013305
    111 H52        -1.1640   -1.4620    2.9650 hc        1 MOL      0.013305
    112 N10         2.0140   -2.7340   -0.3580 n         1 MOL     -0.103195
    113 C35         3.1370   -2.9820   -1.2920 c3        1 MOL     -0.136875
    114 C36         4.4830   -3.0960   -0.5990 c         1 MOL      0.487933
    115 O17         4.6000   -2.7180    0.5860 o         1 MOL     -0.392702
    116 C37         3.2580   -1.9260   -2.3630 c3        1 MOL      0.314745
    117 C38         2.1160   -2.0940   -3.3680 c3        1 MOL     -0.368435
    118 O18         3.2490   -0.6450   -1.8510 oh        1 MOL     -0.604605
    119 H53         1.6610   -1.7910   -0.2190 hn        1 MOL      0.282836
    120 H54         3.0450   -3.9740   -1.7300 h1        1 MOL      0.081434
    121 H55         4.1830   -2.0690   -2.9280 h1        1 MOL      0.025645
    122 H56         2.3790   -0.3140   -1.5980 ho        1 MOL      0.379929
    123 H57         2.2790   -1.4270   -4.2160 hc        1 MOL      0.101483
    124 H58         2.1880   -3.1150   -3.7620 hc        1 MOL      0.101483
    125 H59         1.1570   -1.7740   -2.9690 hc        1 MOL      0.101483
    126 N11         5.5780   -3.4020   -1.3000 n         1 MOL     -0.339704
    127 C39         7.0030   -3.2810   -0.8330 c3        1 MOL     -0.251328
    128 C40         7.2680   -1.7970   -0.3280 c         1 MOL      0.359026
    129 O19         7.7890   -1.5950    0.8100 o         1 MOL     -0.447320
    130 C41         8.0140   -3.5370   -1.9890 c3        1 MOL      0.481525
    131 C42         9.4190   -3.6310   -1.3900 c3        1 MOL     -0.485057
    132 O20         7.8350   -4.7790   -2.5730 oh        1 MOL     -0.600955
    133 H60         5.4140   -3.7650   -2.2270 hn        1 MOL      0.222477
    134 H61         7.1690   -3.9950   -0.0330 h1        1 MOL      0.182928
    135 H62         7.9250   -2.7890   -2.7700 h1        1 MOL     -0.042745
    136 H63         6.9200   -4.9630   -2.8150 ho        1 MOL      0.386993
    137 H64         9.7110   -2.7980   -0.7410 hc        1 MOL      0.142002
    138 H65         9.4750   -4.5270   -0.7700 hc        1 MOL      0.142002
    139 H66        10.1380   -3.8180   -2.1770 hc        1 MOL      0.142002
    140 N12         6.8000   -0.7900   -1.0560 n         1 MOL     -0.255805
    141 C43         6.9650    0.6230   -0.6770 c3        1 MOL     -0.149525
    142 C44         6.0740    1.1300    0.5390 c         1 MOL      0.524737
    143 O21         6.5400    1.8420    1.3650 o         1 MOL     -0.512736
    144 C45         6.6160    1.5830   -1.8500 c3        1 MOL     -0.072606
    145 C46         7.4050    2.8740   -1.9730 c3        1 MOL      0.014926
    146 C47         8.9370    2.6930   -2.1370 c3        1 MOL     -0.138030
    147 C48         9.5590    4.0050   -2.6330 c3        1 MOL      0.070001
    148 N13        11.0730    3.7530   -2.7520 n4        1 MOL     -0.204743
    149 H67         6.3470   -1.0220   -1.9320 hn        1 MOL      0.245607
    150 H68         8.0070    0.7580   -0.3910 h1        1 MOL      0.115877
    151 H69         5.6130    2.0190   -1.8370 hc        1 MOL      0.051708
    152 H70         6.6200    1.1040   -2.8330 hc        1 MOL      0.051708
    153 H71         7.1630    3.4120   -1.0510 hc        1 MOL      0.038169
    154 H72         6.9370    3.5040   -2.7350 hc        1 MOL      0.038169
    155 H73         9.0780    1.9350   -2.9040 hc        1 MOL      0.073200
    156 H74         9.3900    2.4560   -1.1720 hc        1 MOL      0.073200
    157 H75         9.4000    4.8250   -1.9350 hx        1 MOL      0.065884
    158 H76         9.1000    4.2530   -3.5930 hx        1 MOL      0.065884
    159 H77        11.5010    3.6300   -1.8410 hn        1 MOL      0.235357
    160 H78        11.3290    2.9630   -3.3180 hn        1 MOL      0.235357
    161 H79        11.6000    4.4630   -3.2250 hn        1 MOL      0.235357
    162 N14         4.8210    0.6650    0.7020 n         1 MOL     -0.353657
    163 C49         3.9940    0.7140    1.9560 c3        1 MOL     -0.011388
    164 C50         4.5350   -0.0600    3.1690 c         1 MOL      0.444572
    165 O22         4.6170    0.5060    4.2820 o         1 MOL     -0.561558
    166 C51         2.5220    0.3640    1.5990 c3        1 MOL      0.198384
    167 C52         1.9150    1.3200    0.5980 c3        1 MOL      0.023445
    168 C53         0.5460    0.7620    0.0520 c         1 MOL      0.741941
    169 O23         0.5140   -0.3760   -0.4170 o         1 MOL     -0.793431
    170 O24        -0.5030    1.4910    0.0720 o         1 MOL     -0.793431
    171 H80         4.4510    0.0520   -0.0060 hn        1 MOL      0.162672
    172 H81         4.0080    1.7230    2.3620 h1        1 MOL      0.070467
    173 H82         2.0250    0.3590    2.5660 hc        1 MOL     -0.035297
    174 H83         2.5430   -0.6490    1.1870 hc        1 MOL     -0.035297
    175 H84         2.5530    1.4340   -0.2690 hc        1 MOL     -0.039532
    176 H85         1.8580    2.2790    1.1250 hc        1 MOL     -0.039532
    177 N15         5.1000   -1.2620    2.9160 n         1 MOL     -0.010217
    178 C54         5.8860   -2.0150    3.8430 c3        1 MOL     -0.292412
    179 H86         5.3710   -2.9440    4.0840 h1        1 MOL      0.102473
    180 H87         6.8550   -2.2410    3.3990 h1        1 MOL      0.102473
    181 H88         6.0300   -1.4330    4.7540 h1        1 MOL      0.102473
    182 H89         5.0980   -1.5500    1.9540 hn        1 MOL      0.133066
    183 Ca1        -2.0680   -0.1700   -1.2490 Ca        1 MOL      1.767638
    184 O25        -1.0270   -2.8080   -2.2860 oh        1 MOL     -0.858000
    185 H90        -0.4000   -3.3420   -1.8060 ho        1 MOL      0.400124
    186 H91        -1.0940   -3.2210   -3.1480 ho        1 MOL      0.400124
    187 O26        -0.7490    0.3180   -3.6320 oh        1 MOL     -0.858000
    188 H92         0.0410    0.3100   -4.1760 ho        1 MOL      0.400124
    189 H93        -1.1780    1.1500   -3.8390 ho        1 MOL      0.400124
@<TRIPOS>BOND
     1    1    2 1   
     2    1    4 1   
     3    1    5 1   
     4    1    6 1   
     5    2    3 2   
     6    2    7 1   
     7    7    8 1   
     8    7   15 1   
     9    8    9 1   
    10    8   11 1   
    11    8   16 1   
    12    9   10 2   
    13    9   19 1   
    14   11   12 1   
    15   11   17 1   
    16   11   18 1   
    17   12   13 1   
    18   12   14 1   
    19   19   20 1   
    20   19   28 1   
    21   20   21 1   
    22   20   23 1   
    23   20   29 1   
    24   21   22 2   
    25   21   41 1   
    26   23   24 1   
    27   23   30 1   
    28   23   31 1   
    29   24   25 1   
    30   24   32 1   
    31   24   33 1   
    32   25   26 1   
    33   25   34 1   
    34   25   35 1   
    35   26   27 1   
    36   26   36 1   
    37   26   37 1   
    38   27   38 1   
    39   27   39 1   
    40   27   40 1   
    41   41   42 1   
    42   41   49 1   
    43   42   43 1   
    44   42   45 1   
    45   42   50 1   
    46   43   44 2   
    47   43   53 1   
    48   45   46 1   
    49   45   51 1   
    50   45   52 1   
    51   46   47 1   
    52   46   48 1   
    53   53   54 1   
    54   53   57 1   
    55   54   55 1   
    56   54   58 1   
    57   54   59 1   
    58   55   56 2   
    59   55   60 1   
    60   60   61 1   
    61   60   68 1   
    62   61   62 1   
    63   61   64 1   
    64   61   69 1   
    65   62   63 2   
    66   62   72 1   
    67   64   65 1   
    68   64   70 1   
    69   64   71 1   
    70   65   66 1   
    71   65   67 1   
    72   72   73 1   
    73   72   76 1   
    74   73   74 1   
    75   73   77 1   
    76   73   78 1   
    77   74   75 2   
    78   74   79 1   
    79   79   80 1   
    80   79   86 1   
    81   80   81 1   
    82   80   83 1   
    83   80   87 1   
    84   81   82 2   
    85   81   93 1   
    86   83   84 1   
    87   83   85 1   
    88   83   88 1   
    89   84   90 1   
    90   84   91 1   
    91   84   92 1   
    92   85   89 1   
    93   93   94 1   
    94   93  101 1   
    95   94   95 1   
    96   94   97 1   
    97   94  102 1   
    98   95   96 2   
    99   95  112 1   
   100   97   98 1   
   101   97   99 1   
   102   97  103 1   
   103   98  100 1   
   104   98  104 1   
   105   98  105 1   
   106   99  106 1   
   107   99  107 1   
   108   99  108 1   
   109  100  109 1   
   110  100  110 1   
   111  100  111 1   
   112  112  113 1   
   113  112  119 1   
   114  113  114 1   
   115  113  116 1   
   116  113  120 1   
   117  114  115 2   
   118  114  126 1   
   119  116  117 1   
   120  116  118 1   
   121  116  121 1   
   122  117  123 1   
   123  117  124 1   
   124  117  125 1   
   125  118  122 1   
   126  126  127 1   
   127  126  133 1   
   128  127  128 1   
   129  127  130 1   
   130  127  134 1   
   131  128  129 2   
   132  128  140 1   
   133  130  131 1   
   134  130  132 1   
   135  130  135 1   
   136  131  137 1   
   137  131  138 1   
   138  131  139 1   
   139  132  136 1   
   140  140  141 1   
   141  140  149 1   
   142  141  142 1   
   143  141  144 1   
   144  141  150 1   
   145  142  143 2   
   146  142  162 1   
   147  144  145 1   
   148  144  151 1   
   149  144  152 1   
   150  145  146 1   
   151  145  153 1   
   152  145  154 1   
   153  146  147 1   
   154  146  155 1   
   155  146  156 1   
   156  147  148 1   
   157  147  157 1   
   158  147  158 1   
   159  148  159 1   
   160  148  160 1   
   161  148  161 1   
   162  162  163 1   
   163  162  171 1   
   164  163  164 1   
   165  163  166 1   
   166  163  172 1   
   167  164  165 2   
   168  164  177 1   
   169  166  167 1   
   170  166  173 1   
   171  166  174 1   
   172  167  168 1   
   173  167  175 1   
   174  167  176 1   
   175  168  169 1   
   176  168  170 1   
   177  177  178 1   
   178  177  182 1   
   179  178  179 1   
   180  178  180 1   
   181  178  181 1   
   182  184  185 1   
   183  184  186 1   
   184  187  188 1   
   185  187  189 1   
@<TRIPOS>SUBSTRUCTURE
     1 MOL         1 TEMP              0 ****  ****    0 ROOT
