@<TRIPOS>MOLECULE
MOL
  179   176     1     0     0
SMALL
resp


@<TRIPOS>ATOM
      1 C1          2.5790    2.8960    4.0940 c3        1 MOL     -0.227677
      2 C2          1.5970    2.6700    2.8990 c         1 MOL      0.550341
      3 O1          2.1030    2.8410    1.7910 o         1 MOL     -0.585889
      4 H1          2.0070    3.0920    5.0010 hc        1 MOL      0.055946
      5 H2          3.1910    2.0050    4.2370 hc        1 MOL      0.055946
      6 H3          3.2220    3.7490    3.8810 hc        1 MOL      0.055946
      7 N1          0.3110    2.5830    3.0910 n         1 MOL     -0.536932
      8 C3         -0.7820    2.5650    2.0640 c3        1 MOL     -0.095995
      9 C4         -1.1310    4.0090    1.6710 c         1 MOL      0.752947
     10 O2         -2.2580    4.4780    1.7650 o         1 MOL     -0.528470
     11 C5         -1.9950    1.6980    2.5720 c3        1 MOL      0.031143
     12 C6         -2.9260    1.3710    1.4450 c         1 MOL      0.688035
     13 O3         -3.9760    0.7420    1.6760 o         1 MOL     -0.751293
     14 O4         -2.6260    1.5700    0.2600 o         1 MOL     -0.751293
     15 H4          0.0480    2.5950    4.0640 hn        1 MOL      0.333919
     16 H5         -0.2620    2.1250    1.2150 h1        1 MOL      0.092867
     17 H6         -2.4980    2.2450    3.3790 hc        1 MOL      0.002847
     18 H7         -1.5330    0.8240    3.0190 hc        1 MOL      0.002847
     19 N2         -0.1310    4.7450    1.1160 n         1 MOL     -0.690866
     20 C7         -0.4110    6.1370    0.6750 c3        1 MOL      0.003249
     21 C8         -1.5700    6.2410   -0.3140 c         1 MOL      0.442760
     22 O5         -2.4880    7.1030   -0.0470 o         1 MOL     -0.526000
     23 C9          0.8850    6.7250    0.1150 c3        1 MOL     -0.151127
     24 C10         1.8980    6.8280    1.2290 c3        1 MOL      0.141179
     25 C11         2.9320    7.9570    0.8310 c3        1 MOL      0.023350
     26 C12         3.9530    8.1040    1.9840 c3        1 MOL     -0.132351
     27 N3          4.8450    6.9160    2.0550 n4        1 MOL     -0.276824
     28 H8          0.6810    4.2400    0.7930 hn        1 MOL      0.428572
     29 H9         -0.6050    6.6580    1.6060 h1        1 MOL      0.118578
     30 H10         0.5870    7.7130   -0.2570 hc        1 MOL      0.063061
     31 H11         1.3070    6.2150   -0.7440 hc        1 MOL      0.063061
     32 H12         2.5390    5.9450    1.2800 hc        1 MOL     -0.010090
     33 H13         1.4110    7.1220    2.1590 hc        1 MOL     -0.010090
     34 H14         2.3060    8.8220    0.6290 hc        1 MOL      0.031965
     35 H15         3.4760    7.7230   -0.0740 hc        1 MOL      0.031965
     36 H16         3.4360    8.4060    2.8930 hx        1 MOL      0.112742
     37 H17         4.5540    8.9580    1.6830 hx        1 MOL      0.112742
     38 H18         5.6340    7.1280    2.6440 hn        1 MOL      0.321143
     39 H19         4.3460    6.1920    2.5610 hn        1 MOL      0.321143
     40 H20         5.1410    6.5130    1.1790 hn        1 MOL      0.321143
     41 N4         -1.5600    5.3390   -1.3110 n         1 MOL     -0.378917
     42 C13        -2.6680    5.3070   -2.2970 c3        1 MOL      0.085446
     43 C14        -4.0610    4.9830   -1.7220 c         1 MOL      0.365676
     44 O6         -5.0580    5.5100   -2.2650 o         1 MOL     -0.535008
     45 C15        -2.3280    4.3530   -3.3640 c3        1 MOL     -0.207906
     46 C16        -2.1290    2.9380   -2.8650 c         1 MOL      0.857855
     47 O7         -3.1090    2.1840   -2.8020 o         1 MOL     -0.773736
     48 O8         -0.9570    2.5890   -2.4980 o         1 MOL     -0.773736
     49 H21        -0.9850    4.5210   -1.2320 hn        1 MOL      0.235344
     50 H22        -2.7280    6.2940   -2.7530 h1        1 MOL      0.076800
     51 H23        -1.4530    4.7060   -3.9010 hc        1 MOL      0.043691
     52 H24        -3.1310    4.4660   -4.0990 hc        1 MOL      0.043691
     53 N5         -4.0830    4.1270   -0.7000 n         1 MOL      0.125934
     54 C17        -5.3360    3.5450   -0.0980 c3        1 MOL     -0.388974
     55 C18        -5.9440    2.4180   -0.9740 c         1 MOL      0.798823
     56 O9         -6.5900    2.7020   -1.9420 o         1 MOL     -0.554777
     57 H25        -3.2010    3.7510   -0.3840 hn        1 MOL      0.099377
     58 H26        -6.1040    4.3060    0.0370 h1        1 MOL      0.124411
     59 H27        -5.0200    3.1280    0.8620 h1        1 MOL      0.124411
     60 N6         -5.8130    1.1520   -0.5620 n         1 MOL     -0.521355
     61 C19        -6.6010    0.0180   -1.0570 c3        1 MOL     -0.118495
     62 C20        -6.7660   -1.1010    0.0060 c         1 MOL      0.423988
     63 O10        -7.3440   -2.1610   -0.2990 o         1 MOL     -0.474520
     64 C21        -5.8950   -0.4040   -2.3710 c3        1 MOL     -0.200860
     65 C22        -4.7990   -1.3400   -2.0810 c         1 MOL      0.618896
     66 N7         -4.6660   -2.4270   -2.7690 n         1 MOL     -0.882108
     67 O11        -4.0250   -1.1900   -1.1130 o         1 MOL     -0.653599
     68 H28        -5.0090    1.0030    0.0290 hn        1 MOL      0.193432
     69 H29        -7.6110    0.3840   -1.2290 h1        1 MOL      0.151131
     70 H30        -5.5150    0.3990   -3.0030 hc        1 MOL      0.121316
     71 H31        -6.6210   -0.8630   -3.0310 hc        1 MOL      0.121316
     72 H32        -5.2850   -2.7160   -3.5260 hn        1 MOL      0.395823
     73 H33        -4.1200   -3.1890   -2.4020 hn        1 MOL      0.395823
     74 N8         -6.3240   -0.8080    1.2280 n         1 MOL     -0.296321
     75 C23        -6.1980   -1.7320    2.2910 c3        1 MOL     -0.248431
     76 C24        -4.9170   -2.5260    2.4080 c         1 MOL      0.631039
     77 O12        -4.8970   -3.3360    3.3900 o         1 MOL     -0.596861
     78 H34        -5.8460    0.0570    1.4290 hn        1 MOL      0.316867
     79 H35        -7.0120   -2.4650    2.2590 h1        1 MOL      0.131908
     80 H36        -6.3630   -1.2200    3.2420 h1        1 MOL      0.131908
     81 N9         -3.9140   -2.3830    1.5540 n         1 MOL     -0.792799
     82 C25        -2.7570   -3.2370    1.4720 c3        1 MOL      0.507689
     83 C26        -1.4380   -2.5220    1.0700 c         1 MOL      0.215181
     84 O13        -1.4670   -1.3930    0.5530 o         1 MOL     -0.534400
     85 C27        -2.9990   -4.4180    0.5960 c3        1 MOL      0.008408
     86 C28        -4.3110   -5.1720    0.7400 ca        1 MOL     -0.207750
     87 C29        -5.4240   -4.7180    0.0100 ca        1 MOL      0.068763
     88 C30        -4.3260   -6.3490    1.4680 ca        1 MOL      0.068763
     89 C31        -6.5530   -5.5310   -0.1250 ca        1 MOL     -0.474575
     90 C32        -5.4700   -7.2130    1.3360 ca        1 MOL     -0.474575
     91 C33        -6.5700   -6.7420    0.5860 ca        1 MOL      0.549498
     92 O14        -7.6220   -7.5250    0.4790 oh        1 MOL     -0.505433
     93 H37        -4.1200   -1.6990    0.8380 hn        1 MOL      0.789235
     94 H38        -2.5510   -3.6670    2.4560 h1        1 MOL     -0.025340
     95 H39        -2.2010   -5.1570    0.7100 hc        1 MOL     -0.023238
     96 H40        -2.9440   -4.0610   -0.4350 hc        1 MOL     -0.023238
     97 H41        -5.3260   -3.7900   -0.5400 ha        1 MOL      0.085513
     98 H42        -3.4660   -6.7330    1.9900 ha        1 MOL      0.085513
     99 H43        -7.3980   -5.1510   -0.6760 ha        1 MOL      0.184462
    100 H44        -5.4980   -8.2100    1.7450 ha        1 MOL      0.184462
    101 H45        -7.5200   -8.3740    0.9090 ho        1 MOL      0.353486
    102 N10        -0.3000   -3.0970    1.4640 n         1 MOL     -0.329211
    103 C34         1.0440   -2.6140    1.2000 c3        1 MOL      0.014309
    104 C35         1.9290   -3.7550    0.7070 c         1 MOL      0.431613
    105 O15         1.5940   -4.8990    0.9720 o         1 MOL     -0.553609
    106 C36         1.6960   -1.8660    2.3940 c3        1 MOL     -0.095093
    107 C37         2.2320   -2.8050    3.5150 c3        1 MOL     -0.345277
    108 C38         0.6650   -0.9470    3.0020 c3        1 MOL      0.557477
    109 C39         3.1170   -2.1200    4.5350 c3        1 MOL     -0.105685
    110 H46        -0.2390   -4.0470    1.8030 hn        1 MOL      0.261706
    111 H47         0.9160   -1.8280    0.4470 h1        1 MOL      0.164644
    112 H48         2.5020   -1.2210    2.0370 hc        1 MOL      0.042209
    113 H49         2.8120   -3.5740    2.9940 hc        1 MOL      0.119963
    114 H50         1.4360   -3.3030    4.0740 hc        1 MOL      0.119963
    115 H51         0.3110   -0.3070    2.1950 hc        1 MOL     -0.109878
    116 H52        -0.0830   -1.5210    3.5340 hc        1 MOL     -0.109878
    117 H53         1.0290   -0.2750    3.7730 hc        1 MOL     -0.109878
    118 H54         2.5330   -1.5760    5.2790 hc        1 MOL      0.040716
    119 H55         3.8040   -2.7740    5.0620 hc        1 MOL      0.040716
    120 H56         3.7820   -1.3800    4.0960 hc        1 MOL      0.040716
    121 N11         2.9320   -3.3740    0.0270 n         1 MOL     -0.062763
    122 C40         3.8180   -4.2290   -0.6440 c3        1 MOL      0.095677
    123 C41         5.3110   -3.8840   -0.3970 c         1 MOL      0.395396
    124 O16         5.5590   -2.9160    0.3710 o         1 MOL     -0.446668
    125 C42         3.5850   -4.0210   -2.1250 c3        1 MOL     -0.482715
    126 O17         3.9640   -2.6260   -2.5350 oh        1 MOL     -0.313342
    127 H57         3.1100   -2.3950   -0.1680 hn        1 MOL      0.098150
    128 H58         3.7090   -5.2980   -0.4580 h1        1 MOL      0.075079
    129 H59         2.5390   -4.1750   -2.3770 h1        1 MOL      0.194126
    130 H60         4.2610   -4.5840   -2.7610 h1        1 MOL      0.194126
    131 H61         3.8790   -2.6670   -3.4940 ho        1 MOL      0.352459
    132 N12         6.3060   -4.5800   -0.9450 n         1 MOL     -0.384686
    133 C43         7.7510   -4.2940   -0.5740 c3        1 MOL      0.059496
    134 C44         8.0710   -2.8420   -0.9990 c         1 MOL      0.484136
    135 O18         8.8200   -2.1010   -0.3190 o         1 MOL     -0.505843
    136 C45         8.5800   -5.3750   -1.3580 c3        1 MOL     -0.348128
    137 H62         6.0920   -5.4050   -1.4830 hn        1 MOL      0.294249
    138 H63         7.8500   -4.3720    0.5030 h1        1 MOL      0.124425
    139 H64         9.6390   -5.1050   -1.2760 hc        1 MOL      0.111535
    140 H65         8.4010   -6.3590   -0.9380 hc        1 MOL      0.111535
    141 H66         8.2980   -5.4570   -2.4070 hc        1 MOL      0.111535
    142 N13         7.5820   -2.4070   -2.1590 n         1 MOL     -0.335924
    143 C46         7.6990   -1.0420   -2.6700 c3        1 MOL      0.117846
    144 C47         7.1520    0.0770   -1.8050 c         1 MOL      0.404871
    145 O19         7.8680    0.9170   -1.4360 o         1 MOL     -0.502744
    146 C48         7.0910   -1.0490   -4.0440 c3        1 MOL     -0.290827
    147 H67         6.9710   -2.9770   -2.7230 hn        1 MOL      0.208974
    148 H68         8.7650   -0.8880   -2.8300 h1        1 MOL      0.077163
    149 H69         6.9890   -0.0700   -4.5140 hc        1 MOL      0.074709
    150 H70         7.7800   -1.5760   -4.6980 hc        1 MOL      0.074709
    151 H71         6.0820   -1.4580   -3.9900 hc        1 MOL      0.074709
    152 N14         5.9580   -0.1660   -1.2860 n         1 MOL     -0.059068
    153 C49         5.3370    0.7300   -0.3370 c3        1 MOL     -0.324932
    154 C50         6.0590    0.7270    1.0190 c         1 MOL      0.554188
    155 O20         5.9990    1.7150    1.7330 o         1 MOL     -0.605280
    156 C51         3.8760    0.3060   -0.2350 c3        1 MOL      0.205495
    157 C52         3.1100    0.5280   -1.5310 c3        1 MOL      0.014711
    158 C53         1.5740    0.3130   -1.3910 c         1 MOL      0.773768
    159 O21         0.9620   -0.3780   -2.2130 o         1 MOL     -0.802246
    160 O22         0.8800    0.8390   -0.4880 o         1 MOL     -0.802246
    161 H72         5.5400   -1.0710   -1.4560 hn        1 MOL      0.105729
    162 H73         5.2760    1.7710   -0.6610 h1        1 MOL      0.166611
    163 H74         3.4120    0.7880    0.6360 hc        1 MOL     -0.010535
    164 H75         3.8000   -0.7420    0.0430 hc        1 MOL     -0.010535
    165 H76         3.4380   -0.2700   -2.1890 hc        1 MOL     -0.059972
    166 H77         3.3530    1.5020   -1.9540 hc        1 MOL     -0.059972
    167 N15         6.7180   -0.3470    1.4380 n         1 MOL     -0.072637
    168 C54         7.6340   -0.2600    2.6110 c3        1 MOL     -0.381945
    169 H78         7.0550   -0.0440    3.5090 h1        1 MOL      0.140472
    170 H79         8.1560   -1.2090    2.7360 h1        1 MOL      0.140472
    171 H80         8.3610    0.5360    2.4470 h1        1 MOL      0.140472
    172 H81         6.6590   -1.1330    0.8140 hn        1 MOL      0.113125
    173 Ca1        -1.4230    0.2310   -1.6210 Ca        1 MOL      1.789913
    174 O23        -1.2340   -2.3970   -2.5250 oh        1 MOL     -0.783586
    175 H82        -0.6240   -3.1340   -2.6330 ho        1 MOL      0.385332
    176 H83        -2.0630   -2.7220   -2.8810 ho        1 MOL      0.385332
    177 O24        -1.5490    0.1040   -4.3940 oh        1 MOL     -0.783586
    178 H84        -2.0070   -0.7230   -4.4920 ho        1 MOL      0.385332
    179 H85        -1.6330    0.5250   -5.2470 ho        1 MOL      0.385332
@<TRIPOS>BOND
     1    1    2 1   
     2    1    4 1   
     3    1    5 1   
     4    1    6 1   
     5    2    3 2   
     6    2    7 1   
     7    7    8 1   
     8    7   15 1   
     9    8    9 1   
    10    8   11 1   
    11    8   16 1   
    12    9   10 2   
    13    9   19 1   
    14   11   12 1   
    15   11   17 1   
    16   11   18 1   
    17   12   13 1   
    18   12   14 1   
    19   19   20 1   
    20   19   28 1   
    21   20   21 1   
    22   20   23 1   
    23   20   29 1   
    24   21   22 2   
    25   21   41 1   
    26   23   24 1   
    27   23   30 1   
    28   23   31 1   
    29   24   25 1   
    30   24   32 1   
    31   24   33 1   
    32   25   26 1   
    33   25   34 1   
    34   25   35 1   
    35   26   27 1   
    36   26   36 1   
    37   26   37 1   
    38   27   38 1   
    39   27   39 1   
    40   27   40 1   
    41   41   42 1   
    42   41   49 1   
    43   42   43 1   
    44   42   45 1   
    45   42   50 1   
    46   43   44 2   
    47   43   53 1   
    48   45   46 1   
    49   45   51 1   
    50   45   52 1   
    51   46   47 1   
    52   46   48 1   
    53   53   54 1   
    54   53   57 1   
    55   54   55 1   
    56   54   58 1   
    57   54   59 1   
    58   55   56 2   
    59   55   60 1   
    60   60   61 1   
    61   60   68 1   
    62   61   62 1   
    63   61   64 1   
    64   61   69 1   
    65   62   63 2   
    66   62   74 1   
    67   64   65 1   
    68   64   70 1   
    69   64   71 1   
    70   65   66 1   
    71   65   67 2   
    72   66   72 1   
    73   66   73 1   
    74   74   75 1   
    75   74   78 1   
    76   75   76 1   
    77   75   79 1   
    78   75   80 1   
    79   76   77 2   
    80   76   81 1   
    81   81   82 1   
    82   81   93 1   
    83   82   83 1   
    84   82   85 1   
    85   82   94 1   
    86   83   84 2   
    87   83  102 1   
    88   85   86 1   
    89   85   95 1   
    90   85   96 1   
    91   86   87 ar  
    92   86   88 ar  
    93   87   89 ar  
    94   87   97 1   
    95   88   90 ar  
    96   88   98 1   
    97   89   91 ar  
    98   89   99 1   
    99   90   91 ar  
   100   90  100 1   
   101   91   92 1   
   102   92  101 1   
   103  102  103 1   
   104  102  110 1   
   105  103  104 1   
   106  103  106 1   
   107  103  111 1   
   108  104  105 2   
   109  104  121 1   
   110  106  107 1   
   111  106  108 1   
   112  106  112 1   
   113  107  109 1   
   114  107  113 1   
   115  107  114 1   
   116  108  115 1   
   117  108  116 1   
   118  108  117 1   
   119  109  118 1   
   120  109  119 1   
   121  109  120 1   
   122  121  122 1   
   123  121  127 1   
   124  122  123 1   
   125  122  125 1   
   126  122  128 1   
   127  123  124 2   
   128  123  132 1   
   129  125  126 1   
   130  125  129 1   
   131  125  130 1   
   132  126  131 1   
   133  132  133 1   
   134  132  137 1   
   135  133  134 1   
   136  133  136 1   
   137  133  138 1   
   138  134  135 2   
   139  134  142 1   
   140  136  139 1   
   141  136  140 1   
   142  136  141 1   
   143  142  143 1   
   144  142  147 1   
   145  143  144 1   
   146  143  146 1   
   147  143  148 1   
   148  144  145 2   
   149  144  152 1   
   150  146  149 1   
   151  146  150 1   
   152  146  151 1   
   153  152  153 1   
   154  152  161 1   
   155  153  154 1   
   156  153  156 1   
   157  153  162 1   
   158  154  155 2   
   159  154  167 1   
   160  156  157 1   
   161  156  163 1   
   162  156  164 1   
   163  157  158 1   
   164  157  165 1   
   165  157  166 1   
   166  158  159 1   
   167  158  160 1   
   168  167  168 1   
   169  167  172 1   
   170  168  169 1   
   171  168  170 1   
   172  168  171 1   
   173  174  175 1   
   174  174  176 1   
   175  177  178 1   
   176  177  179 1   
@<TRIPOS>SUBSTRUCTURE
     1 MOL         1 TEMP              0 ****  ****    0 ROOT
