@<TRIPOS>MOLECULE
MOL
  186   183     1     0     0
SMALL
resp


@<TRIPOS>ATOM
      1 C1          0.6280   -2.4300    6.3110 c3        1 MOL     -0.420737
      2 C2          0.9860   -2.3140    4.8470 c         1 MOL      0.791936
      3 O1          0.1860   -2.6830    3.9600 o         1 MOL     -0.642367
      4 H1         -0.0160   -1.5980    6.5950 hc        1 MOL      0.107782
      5 H2          0.1020   -3.3700    6.4840 hc        1 MOL      0.107782
      6 H3          1.5370   -2.4060    6.9110 hc        1 MOL      0.107782
      7 N1          2.1920   -1.8990    4.3810 n         1 MOL     -0.684084
      8 C3          2.6360   -1.8650    2.9420 c3        1 MOL      0.318100
      9 C4          3.0670   -3.2830    2.4910 c         1 MOL      0.542597
     10 O2          3.8570   -3.9680    3.1270 o         1 MOL     -0.596449
     11 C5          3.7640   -0.7820    2.8340 c3        1 MOL     -0.537364
     12 C6          4.5380   -0.7260    1.5050 c         1 MOL      0.930378
     13 O3          3.8980   -0.9430    0.4600 o         1 MOL     -0.699393
     14 O4          5.7240   -0.3390    1.5420 o         1 MOL     -0.699393
     15 H4          2.7610   -1.3670    5.0150 hn        1 MOL      0.315502
     16 H5          1.7610   -1.5830    2.3590 h1        1 MOL      0.041793
     17 H6          4.4620   -0.9670    3.6510 hc        1 MOL      0.111623
     18 H7          3.2060    0.1530    2.8620 hc        1 MOL      0.111623
     19 N2          2.5130   -3.7130    1.4080 n         1 MOL     -0.314978
     20 C7          2.6030   -5.1100    0.8490 c3        1 MOL     -0.143193
     21 C8          3.6200   -5.2470   -0.3150 c         1 MOL      0.529237
     22 O5          4.1420   -6.3620   -0.5530 o         1 MOL     -0.592407
     23 C9          1.2310   -5.7300    0.4600 c3        1 MOL      0.298060
     24 C10         0.1800   -5.5220    1.6050 c3        1 MOL      0.025201
     25 C11         1.3180   -7.2050    0.0180 c3        1 MOL     -0.281654
     26 C12        -1.2550   -5.8790    1.4120 c3        1 MOL     -0.047324
     27 H8          1.9320   -3.0310    0.9420 hn        1 MOL      0.188334
     28 H9          3.0270   -5.7510    1.6190 h1        1 MOL      0.089315
     29 H10         1.0510   -5.1160   -0.4190 hc        1 MOL     -0.045590
     30 H11         0.2330   -4.4790    1.9210 hc        1 MOL      0.004118
     31 H12         0.5830   -6.1370    2.4020 hc        1 MOL      0.004118
     32 H13         0.4000   -7.5620   -0.4510 hc        1 MOL      0.050592
     33 H14         2.0420   -7.4510   -0.7600 hc        1 MOL      0.050592
     34 H15         1.4620   -7.7200    0.9750 hc        1 MOL      0.050592
     35 H16        -1.7480   -5.9720    2.3750 hc        1 MOL      0.000535
     36 H17        -1.8390   -5.1760    0.8200 hc        1 MOL      0.000535
     37 H18        -1.2990   -6.9050    1.0260 hc        1 MOL      0.000535
     38 N3          3.9270   -4.1490   -1.0310 n         1 MOL     -0.332977
     39 C13         4.7770   -4.3140   -2.2180 c3        1 MOL      0.136341
     40 C14         6.1030   -3.6200   -2.0090 c         1 MOL      0.451655
     41 O6          7.0260   -4.0030   -2.6830 o         1 MOL     -0.563189
     42 C15         4.1710   -3.7820   -3.5800 c3        1 MOL     -0.310196
     43 C16         3.5050   -2.4220   -3.5430 c         1 MOL      0.801831
     44 O7          3.6250   -1.7270   -2.5240 o         1 MOL     -0.719721
     45 O8          2.6510   -2.1520   -4.4100 o         1 MOL     -0.719721
     46 H19         3.4520   -3.2990   -0.7820 hn        1 MOL      0.321150
     47 H20         5.0810   -5.3600   -2.3680 h1        1 MOL      0.069858
     48 H21         3.4630   -4.5550   -3.8870 hc        1 MOL      0.072876
     49 H22         4.9190   -3.7190   -4.3640 hc        1 MOL      0.072876
     50 N4          6.2310   -2.7070   -1.0140 n         1 MOL     -0.175748
     51 C17         7.4640   -2.0130   -0.5200 c3        1 MOL     -0.155031
     52 C18         7.8490   -0.7180   -1.2230 c         1 MOL      0.547975
     53 O9          9.0860   -0.4720   -1.4150 o         1 MOL     -0.610719
     54 H23         5.3760   -2.5470   -0.5000 hn        1 MOL      0.064834
     55 H24         8.2830   -2.7090   -0.6750 h1        1 MOL      0.096543
     56 H25         7.4020   -1.7290    0.5300 h1        1 MOL      0.096543
     57 N5          6.9340    0.2450   -1.4500 n         1 MOL     -0.238618
     58 C19         7.3000    1.6180   -1.7950 c3        1 MOL     -0.021804
     59 C20         7.4010    2.5530   -0.5580 c         1 MOL      0.481511
     60 O10         7.9050    3.6380   -0.6700 o         1 MOL     -0.570909
     61 C21         6.3040    2.1700   -2.8640 c3        1 MOL     -0.166378
     62 C22         4.8470    1.9280   -2.5530 c         1 MOL      0.758036
     63 O11         3.9860    1.9490   -3.4710 o         1 MOL     -0.740186
     64 O12         4.5200    1.6270   -1.3790 o         1 MOL     -0.740186
     65 H26         6.0190    0.0110   -1.0960 hn        1 MOL      0.088948
     66 H27         8.3440    1.5260   -2.1110 h1        1 MOL      0.096616
     67 H28         6.5620    1.7360   -3.8310 hc        1 MOL      0.049740
     68 H29         6.4910    3.2340   -3.0390 hc        1 MOL      0.049740
     69 N6          6.9580    2.0740    0.6120 n         1 MOL     -0.225547
     70 C23         6.9360    2.9450    1.8070 c3        1 MOL     -0.181096
     71 C24         5.6770    3.7630    2.0010 c         1 MOL      0.573522
     72 O13         5.6540    4.6520    2.8240 o         1 MOL     -0.587878
     73 H30         6.7020    1.1020    0.7100 hn        1 MOL      0.244209
     74 H31         7.7610    3.6590    1.8190 h1        1 MOL      0.092792
     75 H32         7.0670    2.3150    2.6860 h1        1 MOL      0.092792
     76 N7          4.6080    3.4230    1.2450 n         1 MOL     -0.315485
     77 C25         3.2670    4.0520    1.3250 c3        1 MOL      0.005975
     78 C26         2.2330    2.9440    1.3420 c         1 MOL      0.625123
     79 O14         2.4440    1.8200    0.8760 o         1 MOL     -0.731687
     80 C27         3.1890    4.9690    0.0710 c3        1 MOL      0.065159
     81 C28         3.9110    6.3310    0.3140 c3        1 MOL     -0.400222
     82 C29         3.4140    7.4030   -0.6510 c         1 MOL      0.652154
     83 N8          4.1390    7.6420   -1.7610 n         1 MOL     -0.790393
     84 O15         2.3600    8.0740   -0.5450 o         1 MOL     -0.576361
     85 H33         4.5740    2.7160    0.5120 hn        1 MOL      0.226540
     86 H34         3.2230    4.6240    2.2540 h1        1 MOL      0.052101
     87 H35         2.1280    5.1530   -0.1040 hc        1 MOL      0.045065
     88 H36         3.5210    4.4110   -0.8010 hc        1 MOL      0.045065
     89 H37         4.9840    6.2270    0.1420 hc        1 MOL      0.129181
     90 H38         3.9670    6.6470    1.3540 hc        1 MOL      0.129181
     91 H39         4.9370    7.0590   -2.0030 hn        1 MOL      0.362495
     92 H40         3.7370    8.3600   -2.3370 hn        1 MOL      0.362495
     93 N9          1.0130    3.3630    1.6530 n         1 MOL     -0.450273
     94 C30        -0.1280    2.4810    1.9910 c3        1 MOL      0.212495
     95 C31        -1.2860    2.9540    1.0540 c         1 MOL      0.337839
     96 O16        -1.9510    3.9600    1.3610 o         1 MOL     -0.555959
     97 C32        -0.4820    2.3960    3.5090 c3        1 MOL      0.342012
     98 C33        -1.6850    1.4700    3.7840 c3        1 MOL     -0.295886
     99 C34         0.7170    2.0150    4.3280 c3        1 MOL     -0.295886
    100 H41         1.0000    4.3220    1.9750 hn        1 MOL      0.250232
    101 H42         0.0450    1.4530    1.6720 h1        1 MOL      0.101938
    102 H43        -0.7670    3.4350    3.6790 hc        1 MOL     -0.086549
    103 H44        -1.4260    0.4820    3.4000 hc        1 MOL      0.050555
    104 H45        -1.9530    1.5030    4.8420 hc        1 MOL      0.050555
    105 H46        -2.5690    1.7770    3.2150 hc        1 MOL      0.050555
    106 H47         0.9960    0.9750    4.1340 hc        1 MOL      0.050555
    107 H48         1.5430    2.7140    4.2390 hc        1 MOL      0.050555
    108 H49         0.3130    2.1430    5.3300 hc        1 MOL      0.050555
    109 N10        -1.5810    2.3380   -0.0780 n         1 MOL     -0.190204
    110 C35        -2.8220    2.5640   -0.8150 c3        1 MOL      0.013127
    111 C36        -4.1810    2.1430   -0.1290 c         1 MOL      0.356190
    112 O17        -4.0840    1.4190    0.8330 o         1 MOL     -0.274019
    113 C37        -2.7050    1.5270   -2.0430 c3        1 MOL     -0.421304
    114 C38        -3.8520    1.5750   -3.0870 c         1 MOL      0.644831
    115 N11        -4.2600    0.4270   -3.5490 n         1 MOL     -0.767331
    116 O18        -4.3160    2.6610   -3.3140 o         1 MOL     -0.574416
    117 H50        -0.9540    1.5650   -0.2290 hn        1 MOL      0.179825
    118 H51        -2.9720    3.5760   -1.1970 h1        1 MOL      0.095468
    119 H52        -2.4330    0.5320   -1.7270 hc        1 MOL      0.142651
    120 H53        -1.9000    1.8110   -2.7200 hc        1 MOL      0.142651
    121 H54        -3.6670   -0.3410   -3.2830 hn        1 MOL      0.389905
    122 H55        -4.8760    0.4590   -4.3450 hn        1 MOL      0.389905
    123 N12        -5.3990    2.4390   -0.6160 n         1 MOL     -0.411907
    124 C39        -6.6570    1.9830    0.0200 c3        1 MOL     -0.017454
    125 C40        -6.7070    0.4850    0.0900 c         1 MOL      0.692473
    126 O19        -7.1080   -0.1350    1.0880 o         1 MOL     -0.515862
    127 C41        -7.8080    2.5750   -0.8710 c3        1 MOL     -0.024155
    128 C42        -9.0760    2.1290   -0.1940 ca        1 MOL      0.014953
    129 C43        -9.4110    2.4100    1.1070 ca        1 MOL     -0.172780
    130 C44        -9.9660    1.2970   -0.9250 ca        1 MOL     -0.172780
    131 C45       -10.5870    1.9490    1.7560 ca        1 MOL     -0.248289
    132 C46       -11.0830    0.7170   -0.2840 ca        1 MOL     -0.248289
    133 C47       -11.4510    1.0940    1.0830 ca        1 MOL      0.327630
    134 O20       -12.6270    0.6140    1.6400 oh        1 MOL     -0.515255
    135 H56        -5.5340    2.9070   -1.5080 hn        1 MOL      0.246090
    136 H57        -6.5770    2.4160    1.0140 h1        1 MOL      0.093937
    137 H58        -7.8010    2.3160   -1.9330 hc        1 MOL      0.040611
    138 H59        -7.7860    3.6600   -0.9020 hc        1 MOL      0.040611
    139 H60        -8.7620    3.0930    1.6240 ha        1 MOL      0.127223
    140 H61        -9.7840    1.0080   -1.9380 ha        1 MOL      0.127223
    141 H62       -10.6570    2.2220    2.8010 ha        1 MOL      0.147120
    142 H63       -11.7570    0.0850   -0.8420 ha        1 MOL      0.147120
    143 H64       -13.1340    0.1670    0.9540 ho        1 MOL      0.364532
    144 N13        -6.3660   -0.1350   -1.0490 n         1 MOL     -0.473565
    145 C48        -6.3290   -1.6090   -1.2050 c3        1 MOL     -0.057707
    146 C49        -5.2890   -2.2920   -0.2790 c         1 MOL      0.261111
    147 O21        -5.5350   -3.4620    0.1320 o         1 MOL     -0.496830
    148 C50        -6.2370   -2.0250   -2.7240 c3        1 MOL      0.328854
    149 C51        -7.3680   -1.2350   -3.5110 c3        1 MOL     -0.319032
    150 C52        -7.6410   -1.7010   -4.9600 c         1 MOL      0.732238
    151 O22        -7.2600   -2.7520   -5.4790 o         1 MOL     -0.735038
    152 O23        -8.5500   -1.0420   -5.5350 o         1 MOL     -0.735038
    153 H65        -6.1400    0.3290   -1.9150 hn        1 MOL      0.384895
    154 H66        -7.2900   -1.9680   -0.8450 h1        1 MOL      0.107612
    155 H67        -6.4360   -3.0870   -2.8370 hc        1 MOL     -0.074892
    156 H68        -5.2510   -1.8460   -3.1740 hc        1 MOL     -0.074892
    157 H69        -7.1130   -0.1740   -3.5340 hc        1 MOL      0.027614
    158 H70        -8.2620   -1.3390   -2.9090 hc        1 MOL      0.027614
    159 N14        -4.2840   -1.5920    0.2650 n         1 MOL     -0.039957
    160 C53        -3.4690   -1.9740    1.4350 c3        1 MOL     -0.039008
    161 C54        -4.0720   -1.6510    2.7830 c         1 MOL      0.436088
    162 O24        -3.8960   -2.4340    3.7260 o         1 MOL     -0.563175
    163 C55        -1.9870   -1.4770    1.3640 c3        1 MOL      0.064905
    164 C56        -1.4430   -1.9190    0.0260 c3        1 MOL     -0.004902
    165 C57        -0.0430   -1.2780   -0.1160 c         1 MOL      0.716069
    166 O25         1.0260   -1.8700   -0.2910 o         1 MOL     -0.741432
    167 O26         0.0440   -0.0460   -0.1170 o         1 MOL     -0.741432
    168 H71        -3.9170   -0.8180   -0.2650 hn        1 MOL      0.125751
    169 H72        -3.4570   -3.0550    1.5630 h1        1 MOL      0.088969
    170 H73        -1.3740   -1.9100    2.1490 hc        1 MOL      0.052346
    171 H74        -1.9610   -0.3910    1.4840 hc        1 MOL      0.052346
    172 H75        -1.9990   -1.5440   -0.8360 hc        1 MOL     -0.054154
    173 H76        -1.4230   -3.0120    0.0090 hc        1 MOL     -0.054154
    174 N15        -4.8850   -0.5540    2.9270 n         1 MOL      0.007009
    175 C58        -5.6790   -0.1650    4.1540 c3        1 MOL     -0.381224
    176 H77        -6.0700    0.8440    4.0280 h1        1 MOL      0.125976
    177 H78        -6.5070   -0.8610    4.2870 h1        1 MOL      0.125976
    178 H79        -5.0320   -0.1970    5.0300 h1        1 MOL      0.125976
    179 H80        -5.0280   -0.0020    2.0950 hn        1 MOL     -0.046969
    180 Ca1         2.3890    0.2810   -1.1470 Ca        1 MOL      1.785791
    181 O27         1.3220   -0.0480   -3.5130 oh        1 MOL     -0.887060
    182 H81         1.8760   -0.7570   -3.8610 ho        1 MOL      0.409115
    183 H82         1.0570    0.4470   -4.2920 ho        1 MOL      0.409115
    184 O28         1.6910    2.7280   -2.1940 oh        1 MOL     -0.887060
    185 H83         1.6200    3.6650   -2.3960 ho        1 MOL      0.409115
    186 H84         2.3440    2.3960   -2.8170 ho        1 MOL      0.409115
@<TRIPOS>BOND
     1    1    2 1   
     2    1    4 1   
     3    1    5 1   
     4    1    6 1   
     5    2    3 2   
     6    2    7 1   
     7    7    8 1   
     8    7   15 1   
     9    8    9 1   
    10    8   11 1   
    11    8   16 1   
    12    9   10 2   
    13    9   19 1   
    14   11   12 1   
    15   11   17 1   
    16   11   18 1   
    17   12   13 1   
    18   12   14 1   
    19   19   20 1   
    20   19   27 1   
    21   20   21 1   
    22   20   23 1   
    23   20   28 1   
    24   21   22 2   
    25   21   38 1   
    26   23   24 1   
    27   23   25 1   
    28   23   29 1   
    29   24   26 1   
    30   24   30 1   
    31   24   31 1   
    32   25   32 1   
    33   25   33 1   
    34   25   34 1   
    35   26   35 1   
    36   26   36 1   
    37   26   37 1   
    38   38   39 1   
    39   38   46 1   
    40   39   40 1   
    41   39   42 1   
    42   39   47 1   
    43   40   41 2   
    44   40   50 1   
    45   42   43 1   
    46   42   48 1   
    47   42   49 1   
    48   43   44 1   
    49   43   45 1   
    50   50   51 1   
    51   50   54 1   
    52   51   52 1   
    53   51   55 1   
    54   51   56 1   
    55   52   53 2   
    56   52   57 1   
    57   57   58 1   
    58   57   65 1   
    59   58   59 1   
    60   58   61 1   
    61   58   66 1   
    62   59   60 2   
    63   59   69 1   
    64   61   62 1   
    65   61   67 1   
    66   61   68 1   
    67   62   63 1   
    68   62   64 1   
    69   69   70 1   
    70   69   73 1   
    71   70   71 1   
    72   70   74 1   
    73   70   75 1   
    74   71   72 2   
    75   71   76 1   
    76   76   77 1   
    77   76   85 1   
    78   77   78 1   
    79   77   80 1   
    80   77   86 1   
    81   78   79 2   
    82   78   93 1   
    83   80   81 1   
    84   80   87 1   
    85   80   88 1   
    86   81   82 1   
    87   81   89 1   
    88   81   90 1   
    89   82   83 1   
    90   82   84 2   
    91   83   91 1   
    92   83   92 1   
    93   93   94 1   
    94   93  100 1   
    95   94   95 1   
    96   94   97 1   
    97   94  101 1   
    98   95   96 2   
    99   95  109 1   
   100   97   98 1   
   101   97   99 1   
   102   97  102 1   
   103   98  103 1   
   104   98  104 1   
   105   98  105 1   
   106   99  106 1   
   107   99  107 1   
   108   99  108 1   
   109  109  110 1   
   110  109  117 1   
   111  110  111 1   
   112  110  113 1   
   113  110  118 1   
   114  111  112 2   
   115  111  123 1   
   116  113  114 1   
   117  113  119 1   
   118  113  120 1   
   119  114  115 1   
   120  114  116 2   
   121  115  121 1   
   122  115  122 1   
   123  123  124 1   
   124  123  135 1   
   125  124  125 1   
   126  124  127 1   
   127  124  136 1   
   128  125  126 2   
   129  125  144 1   
   130  127  128 1   
   131  127  137 1   
   132  127  138 1   
   133  128  129 ar  
   134  128  130 ar  
   135  129  131 ar  
   136  129  139 1   
   137  130  132 ar  
   138  130  140 1   
   139  131  133 ar  
   140  131  141 1   
   141  132  133 ar  
   142  132  142 1   
   143  133  134 1   
   144  134  143 1   
   145  144  145 1   
   146  144  153 1   
   147  145  146 1   
   148  145  148 1   
   149  145  154 1   
   150  146  147 2   
   151  146  159 1   
   152  148  149 1   
   153  148  155 1   
   154  148  156 1   
   155  149  150 1   
   156  149  157 1   
   157  149  158 1   
   158  150  151 1   
   159  150  152 1   
   160  159  160 1   
   161  159  168 1   
   162  160  161 1   
   163  160  163 1   
   164  160  169 1   
   165  161  162 2   
   166  161  174 1   
   167  163  164 1   
   168  163  170 1   
   169  163  171 1   
   170  164  165 1   
   171  164  172 1   
   172  164  173 1   
   173  165  166 1   
   174  165  167 1   
   175  174  175 1   
   176  174  179 1   
   177  175  176 1   
   178  175  177 1   
   179  175  178 1   
   180  181  182 1   
   181  181  183 1   
   182  184  185 1   
   183  184  186 1   
@<TRIPOS>SUBSTRUCTURE
     1 MOL         1 TEMP              0 ****  ****    0 ROOT
