@<TRIPOS>MOLECULE
MOL
  172   171     1     0     0
SMALL
resp


@<TRIPOS>ATOM
      1 C1         -0.0100    3.9160    5.1810 c3        1 MOL     -0.352491
      2 C2         -0.6150    3.4890    3.8500 c         1 MOL      0.746287
      3 O1         -0.3200    4.0890    2.7850 o         1 MOL     -0.616956
      4 H1          0.3080    4.9570    5.1180 hc        1 MOL      0.084576
      5 H2         -0.7550    3.8120    5.9700 hc        1 MOL      0.084576
      6 H3          0.8500    3.2870    5.4090 hc        1 MOL      0.084576
      7 N1         -1.6260    2.6070    3.8340 n         1 MOL     -0.623172
      8 C3         -2.3170    2.2540    2.5130 c3        1 MOL      0.214936
      9 C4         -3.0160    3.4760    1.8330 c         1 MOL      0.507204
     10 O2         -4.0060    3.9880    2.4030 o         1 MOL     -0.619409
     11 C5         -3.3460    1.1350    2.8030 c3        1 MOL     -0.192812
     12 C6         -3.8930    0.4790    1.5560 c         1 MOL      0.720439
     13 O3         -4.9160   -0.2370    1.7540 o         1 MOL     -0.670137
     14 O4         -3.4640    0.6890    0.4080 o         1 MOL     -0.670137
     15 H4         -1.8180    2.0780    4.6750 hn        1 MOL      0.316545
     16 H5         -1.4980    2.0290    1.8250 h1        1 MOL     -0.006928
     17 H6         -4.1660    1.4700    3.4350 hc        1 MOL      0.045870
     18 H7         -2.7380    0.4350    3.3740 hc        1 MOL      0.045870
     19 N2         -2.5320    3.9200    0.6990 n         1 MOL     -0.111305
     20 C7         -2.8440    5.2070    0.0960 c3        1 MOL      0.001792
     21 C8         -3.8110    5.0930   -0.9870 c         1 MOL      0.410584
     22 O5         -4.6110    6.0120   -1.1340 o         1 MOL     -0.571765
     23 C9         -1.4670    5.7690   -0.1880 c3        1 MOL     -0.148903
     24 H8         -1.8010    3.3520    0.3020 hn        1 MOL      0.167688
     25 H9         -3.2530    5.8820    0.8430 h1        1 MOL      0.079697
     26 H10        -0.8580    5.7630    0.7130 hc        1 MOL      0.040050
     27 H11        -0.8130    5.2390   -0.8820 hc        1 MOL      0.040050
     28 H12        -1.4580    6.8130   -0.5030 hc        1 MOL      0.040050
     29 N3         -3.9140    3.9270   -1.5660 n         1 MOL     -0.086732
     30 C10        -4.8960    3.5650   -2.5100 c3        1 MOL     -0.109886
     31 C11        -6.0690    2.7960   -1.8370 c         1 MOL      0.380368
     32 O6         -7.1030    2.6220   -2.4550 o         1 MOL     -0.519054
     33 C12        -4.2990    2.6610   -3.6360 c3        1 MOL     -0.146747
     34 C13        -3.4750    1.5010   -3.1190 c         1 MOL      0.641197
     35 O7         -2.2230    1.6230   -3.1320 o         1 MOL     -0.664174
     36 O8         -4.0870    0.4580   -2.7260 o         1 MOL     -0.664174
     37 H13        -3.2770    3.1600   -1.4290 hn        1 MOL      0.124580
     38 H14        -5.2270    4.4820   -2.9900 h1        1 MOL      0.113710
     39 H15        -3.7070    3.2890   -4.3000 hc        1 MOL      0.042507
     40 H16        -5.1310    2.1920   -4.1480 hc        1 MOL      0.042507
     41 N4         -6.0230    2.4990   -0.5330 n         1 MOL     -0.078965
     42 C14        -7.1380    1.9480    0.2570 c3        1 MOL     -0.120729
     43 C15        -7.7430    0.5520   -0.0960 c         1 MOL      0.445720
     44 O9         -8.9400    0.3600   -0.1770 o         1 MOL     -0.557234
     45 H17        -5.1520    2.6630   -0.0560 hn        1 MOL      0.094808
     46 H18        -7.9150    2.7190    0.3010 h1        1 MOL      0.080395
     47 H19        -6.7390    1.9200    1.2670 h1        1 MOL      0.080395
     48 N5         -6.8000   -0.3560   -0.4670 n         1 MOL     -0.078351
     49 C16        -7.2000   -1.6140   -1.0200 c3        1 MOL     -0.029256
     50 C17        -7.1620   -2.8010    0.0150 c         1 MOL      0.370580
     51 O10        -7.7630   -3.7550   -0.2930 o         1 MOL     -0.542704
     52 C18        -6.3590   -1.8390   -2.3030 c3        1 MOL     -0.041688
     53 C19        -5.0180   -2.4420   -2.1340 c         1 MOL      0.521806
     54 N6         -4.7400   -3.4340   -2.9390 n         1 MOL     -0.731704
     55 O11        -4.2410   -2.1140   -1.2570 o         1 MOL     -0.362171
     56 H20        -5.8760   -0.2600   -0.0740 hn        1 MOL      0.043295
     57 H21        -8.2210   -1.4620   -1.3950 h1        1 MOL      0.099051
     58 H22        -6.2230   -0.8970   -2.8360 hc        1 MOL      0.025717
     59 H23        -6.9750   -2.5290   -2.8910 hc        1 MOL      0.025717
     60 H24        -5.4520   -3.8620   -3.5120 hn        1 MOL      0.337459
     61 H25        -3.8680   -3.9340   -2.8210 hn        1 MOL      0.337459
     62 N7         -6.3520   -2.6690    1.0560 n         1 MOL     -0.050507
     63 C20        -6.0850   -3.5150    2.2290 c3        1 MOL     -0.200000
     64 C21        -4.6280   -3.9460    2.2740 c         1 MOL      0.580055
     65 O12        -4.3280   -4.7980    3.1030 o         1 MOL     -0.608589
     66 H26        -5.9660   -1.7430    1.1640 hn        1 MOL      0.119738
     67 H27        -6.7340   -4.3970    2.2840 h1        1 MOL      0.099852
     68 H28        -6.1980   -2.8520    3.0780 h1        1 MOL      0.099852
     69 N8         -3.7680   -3.5310    1.3520 n         1 MOL     -0.126590
     70 C22        -2.3680   -4.0110    1.1970 c3        1 MOL     -0.116026
     71 C23        -1.3350   -2.8840    1.2800 c         1 MOL      0.515353
     72 O13        -1.5670   -1.7370    0.8460 o         1 MOL     -0.531709
     73 C24        -2.1230   -4.9450   -0.0210 c3        1 MOL      0.396354
     74 C25        -3.1390   -6.1400   -0.1000 c3        1 MOL     -0.384984
     75 O14        -2.2050   -4.2640   -1.2170 oh        1 MOL     -0.675612
     76 H29        -4.0460   -2.7790    0.7320 hn        1 MOL      0.040484
     77 H30        -2.1450   -4.6050    2.0870 h1        1 MOL      0.060692
     78 H31        -1.0590   -5.1420    0.1100 h1        1 MOL     -0.041980
     79 H32        -2.0970   -4.9300   -1.8950 ho        1 MOL      0.401285
     80 H33        -3.2350   -6.5190   -1.1180 hc        1 MOL      0.100263
     81 H34        -2.7590   -6.9700    0.5030 hc        1 MOL      0.100263
     82 H35        -4.1200   -5.8380    0.2590 hc        1 MOL      0.100263
     83 N9         -0.1420   -3.2250    1.8270 n         1 MOL     -0.246285
     84 C26         1.1240   -2.4550    1.7530 c3        1 MOL     -0.491286
     85 C27         1.9440   -2.8590    0.5110 c         1 MOL      0.846245
     86 O15         2.5480   -3.9420    0.4610 o         1 MOL     -0.632563
     87 C28         1.8140   -2.5140    3.0850 c3        1 MOL      0.435758
     88 C29         0.9250   -2.0100    4.2810 c3        1 MOL      0.164669
     89 C30         3.1360   -1.7940    3.1250 c3        1 MOL     -0.438977
     90 C31         1.5930   -2.1330    5.7140 c3        1 MOL     -0.399897
     91 H36        -0.1090   -4.1250    2.2780 hn        1 MOL      0.246444
     92 H37         0.8170   -1.4120    1.6250 h1        1 MOL      0.178807
     93 H38         1.9830   -3.5750    3.2950 hc        1 MOL     -0.072258
     94 H39         0.0550   -2.6550    4.2010 hc        1 MOL     -0.049504
     95 H40         0.6460   -0.9730    4.0650 hc        1 MOL     -0.049504
     96 H41         3.6230   -1.9990    2.1630 hc        1 MOL      0.083330
     97 H42         2.9880   -0.7430    3.3630 hc        1 MOL      0.083330
     98 H43         3.8280   -2.2420    3.8400 hc        1 MOL      0.083330
     99 H44         2.0550   -3.1170    5.7620 hc        1 MOL      0.095304
    100 H45         2.4000   -1.4120    5.7450 hc        1 MOL      0.095304
    101 H46         0.8680   -1.8160    6.4590 hc        1 MOL      0.095304
    102 N10         1.9710   -1.9410   -0.4470 n         1 MOL     -0.377851
    103 C32         2.9550   -1.8750   -1.5210 c3        1 MOL     -0.238346
    104 C33         4.3050   -1.4090   -0.9770 c         1 MOL      0.649389
    105 O16         4.3310   -0.7850    0.0340 o         1 MOL     -0.338297
    106 C34         2.5590   -0.9320   -2.6780 c3        1 MOL     -0.409418
    107 C35         1.1410   -1.0730   -3.1790 c         1 MOL      0.840989
    108 O17         0.9080   -1.8210   -4.1540 o         1 MOL     -0.700000
    109 O18         0.3030   -0.2190   -2.8960 o         1 MOL     -0.700000
    110 H47         1.5090   -1.0630   -0.2900 hn        1 MOL      0.120116
    111 H48         3.1130   -2.8650   -1.9580 h1        1 MOL      0.127770
    112 H49         3.2810   -1.1360   -3.4700 hc        1 MOL      0.134266
    113 H50         2.7390    0.0820   -2.3330 hc        1 MOL      0.134266
    114 N11         5.4130   -1.7510   -1.6270 n         1 MOL     -0.687595
    115 C36         6.7010   -1.3860   -1.1300 c3        1 MOL      0.377431
    116 C37         6.9520    0.0960   -0.7980 c         1 MOL      0.295993
    117 O19         7.4520    0.3270    0.3140 o         1 MOL     -0.419706
    118 C38         7.8860   -1.8970   -2.0210 c3        1 MOL     -0.292613
    119 C39         9.2700   -1.6170   -1.5180 ca        1 MOL      0.174028
    120 C40        10.1720   -0.8650   -2.2470 ca        1 MOL     -0.155025
    121 C41         9.6680   -2.1160   -0.3390 ca        1 MOL     -0.155025
    122 C42        11.5180   -0.7990   -1.8890 ca        1 MOL     -0.138952
    123 C43        11.0100   -1.9270    0.1930 ca        1 MOL     -0.138952
    124 C44        11.9750   -1.3370   -0.6630 ca        1 MOL     -0.103056
    125 H51         5.3350   -2.2420   -2.5100 hn        1 MOL      0.357270
    126 H52         6.7270   -1.8780   -0.1550 h1        1 MOL      0.058663
    127 H53         7.7860   -1.2950   -2.9290 hc        1 MOL      0.079989
    128 H54         7.8180   -2.9510   -2.2960 hc        1 MOL      0.079989
    129 H55         9.9420   -0.3100   -3.1490 ha        1 MOL      0.103692
    130 H56         8.9230   -2.5560    0.3170 ha        1 MOL      0.103692
    131 H57        12.2630   -0.1790   -2.3770 ha        1 MOL      0.119028
    132 H58        11.2760   -2.3170    1.1690 ha        1 MOL      0.119028
    133 H59        13.0130   -1.4320   -0.3670 ha        1 MOL      0.101040
    134 N12         6.4830    1.1890   -1.5900 n         1 MOL     -0.060454
    135 C45         6.7050    2.5360   -1.1480 c3        1 MOL     -0.069157
    136 C46         5.9110    2.9730    0.0910 c         1 MOL      0.465833
    137 O20         6.3430    3.6930    0.9600 o         1 MOL     -0.538539
    138 C47         6.2920    3.3690   -2.4130 c3        1 MOL     -0.114835
    139 C48         5.4070    2.5240   -3.2590 c3        1 MOL      0.031960
    140 C49         5.7330    1.1500   -2.8510 c3        1 MOL      0.026422
    141 H60         7.7690    2.6280   -0.9370 h1        1 MOL      0.083870
    142 H61         5.8510    4.3490   -2.2520 hc        1 MOL      0.046557
    143 H62         7.2190    3.5710   -2.9530 hc        1 MOL      0.046557
    144 H63         4.3550    2.6720   -3.0070 hc        1 MOL      0.037502
    145 H64         5.4650    2.7020   -4.3310 hc        1 MOL      0.037502
    146 H65         4.8570    0.5200   -2.7220 h1        1 MOL     -0.007924
    147 H66         6.3580    0.5910   -3.5530 h1        1 MOL     -0.007924
    148 N13         4.8340    2.2130    0.3440 n         1 MOL     -0.151885
    149 C50         3.9750    2.2200    1.5520 c3        1 MOL     -0.174991
    150 C51         4.7360    1.4940    2.6800 c         1 MOL      0.535540
    151 O21         4.4710    1.8610    3.8240 o         1 MOL     -0.597059
    152 C52         2.6030    1.5850    1.2920 c3        1 MOL      0.013457
    153 C53         1.8770    2.1510    0.0070 c3        1 MOL     -0.190740
    154 C54         0.3960    1.5270   -0.1630 c         1 MOL      0.669603
    155 O22        -0.6450    2.1480   -0.5390 o         1 MOL     -0.662874
    156 O23         0.2590    0.2990   -0.0880 o         1 MOL     -0.662874
    157 H67         4.7610    1.3770   -0.2360 hn        1 MOL     -0.005003
    158 H68         3.8520    3.2720    1.8050 h1        1 MOL      0.135685
    159 H69         2.0130    1.8200    2.1780 hc        1 MOL      0.064996
    160 H70         2.7010    0.5050    1.1910 hc        1 MOL      0.064996
    161 H71         2.4620    1.7800   -0.8380 hc        1 MOL      0.081560
    162 H72         1.8310    3.2410   -0.0130 hc        1 MOL      0.081560
    163 N14         5.6290    0.5550    2.4150 n         1 MOL      0.061080
    164 C55         6.6020    0.0700    3.3970 c3        1 MOL     -0.201230
    165 H73         7.1140    0.9190    3.8500 h1        1 MOL      0.071481
    166 H74         6.0860   -0.4970    4.1720 h1        1 MOL      0.071481
    167 H75         7.3320   -0.5700    2.9020 h1        1 MOL      0.071481
    168 H76         5.8040    0.3370    1.4400 hn        1 MOL     -0.027222
    169 Ca1        -1.9120   -0.3360   -1.3110 Ca        1 MOL      1.693888
    170 O24        -1.8880   -2.2620   -3.2640 oh        1 MOL     -0.789022
    171 H77        -1.8050   -3.0280   -2.6830 ho        1 MOL      0.360217
    172 H78        -1.2140   -2.3870   -3.9300 ho        1 MOL      0.360217
@<TRIPOS>BOND
     1    1    2 1   
     2    1    4 1   
     3    1    5 1   
     4    1    6 1   
     5    2    3 2   
     6    2    7 1   
     7    7    8 1   
     8    7   15 1   
     9    8    9 1   
    10    8   11 1   
    11    8   16 1   
    12    9   10 2   
    13    9   19 1   
    14   11   12 1   
    15   11   17 1   
    16   11   18 1   
    17   12   13 1   
    18   12   14 1   
    19   19   20 1   
    20   19   24 1   
    21   20   21 1   
    22   20   23 1   
    23   20   25 1   
    24   21   22 2   
    25   21   29 1   
    26   23   26 1   
    27   23   27 1   
    28   23   28 1   
    29   29   30 1   
    30   29   37 1   
    31   30   31 1   
    32   30   33 1   
    33   30   38 1   
    34   31   32 2   
    35   31   41 1   
    36   33   34 1   
    37   33   39 1   
    38   33   40 1   
    39   34   35 1   
    40   34   36 1   
    41   41   42 1   
    42   41   45 1   
    43   42   43 1   
    44   42   46 1   
    45   42   47 1   
    46   43   44 2   
    47   43   48 1   
    48   48   49 1   
    49   48   56 1   
    50   49   50 1   
    51   49   52 1   
    52   49   57 1   
    53   50   51 2   
    54   50   62 1   
    55   52   53 1   
    56   52   58 1   
    57   52   59 1   
    58   53   54 1   
    59   53   55 2   
    60   54   60 1   
    61   54   61 1   
    62   62   63 1   
    63   62   66 1   
    64   63   64 1   
    65   63   67 1   
    66   63   68 1   
    67   64   65 2   
    68   64   69 1   
    69   69   70 1   
    70   69   76 1   
    71   70   71 1   
    72   70   73 1   
    73   70   77 1   
    74   71   72 2   
    75   71   83 1   
    76   73   74 1   
    77   73   75 1   
    78   73   78 1   
    79   74   80 1   
    80   74   81 1   
    81   74   82 1   
    82   75   79 1   
    83   83   84 1   
    84   83   91 1   
    85   84   85 1   
    86   84   87 1   
    87   84   92 1   
    88   85   86 2   
    89   85  102 1   
    90   87   88 1   
    91   87   89 1   
    92   87   93 1   
    93   88   90 1   
    94   88   94 1   
    95   88   95 1   
    96   89   96 1   
    97   89   97 1   
    98   89   98 1   
    99   90   99 1   
   100   90  100 1   
   101   90  101 1   
   102  102  103 1   
   103  102  110 1   
   104  103  104 1   
   105  103  106 1   
   106  103  111 1   
   107  104  105 2   
   108  104  114 1   
   109  106  107 1   
   110  106  112 1   
   111  106  113 1   
   112  107  108 1   
   113  107  109 1   
   114  114  115 1   
   115  114  125 1   
   116  115  116 1   
   117  115  118 1   
   118  115  126 1   
   119  116  117 2   
   120  116  134 1   
   121  118  119 1   
   122  118  127 1   
   123  118  128 1   
   124  119  120 ar  
   125  119  121 ar  
   126  120  122 ar  
   127  120  129 1   
   128  121  123 ar  
   129  121  130 1   
   130  122  124 ar  
   131  122  131 1   
   132  123  124 ar  
   133  123  132 1   
   134  124  133 1   
   135  134  135 1   
   136  134  140 1   
   137  135  136 1   
   138  135  138 1   
   139  135  141 1   
   140  136  137 2   
   141  136  148 1   
   142  138  139 1   
   143  138  142 1   
   144  138  143 1   
   145  139  140 1   
   146  139  144 1   
   147  139  145 1   
   148  140  146 1   
   149  140  147 1   
   150  148  149 1   
   151  148  157 1   
   152  149  150 1   
   153  149  152 1   
   154  149  158 1   
   155  150  151 2   
   156  150  163 1   
   157  152  153 1   
   158  152  159 1   
   159  152  160 1   
   160  153  154 1   
   161  153  161 1   
   162  153  162 1   
   163  154  155 1   
   164  154  156 1   
   165  163  164 1   
   166  163  168 1   
   167  164  165 1   
   168  164  166 1   
   169  164  167 1   
   170  170  171 1   
   171  170  172 1   
@<TRIPOS>SUBSTRUCTURE
     1 MOL         1 TEMP              0 ****  ****    0 ROOT
