@<TRIPOS>MOLECULE
MOL
  176   174     1     0     0
SMALL
resp


@<TRIPOS>ATOM
      1 C1          0.4830    4.2820    6.4870 c3        1 MOL     -0.265625
      2 C2          0.5780    3.6310    5.1280 c         1 MOL      0.800487
      3 O1          1.7260    3.5120    4.7350 o         1 MOL     -0.585579
      4 H1         -0.2830    3.7810    7.0770 hc        1 MOL      0.061924
      5 H2          1.4430    4.2020    6.9970 hc        1 MOL      0.061924
      6 H3          0.2210    5.3330    6.3690 hc        1 MOL      0.061924
      7 N1         -0.5340    3.3460    4.3760 n         1 MOL     -0.769336
      8 C3         -0.4880    2.7560    3.0150 c3        1 MOL      0.349218
      9 C4         -0.5950    3.8310    1.9240 c         1 MOL      0.568809
     10 O2         -1.2820    4.8400    2.1260 o         1 MOL     -0.534537
     11 C5         -1.6350    1.7200    2.9000 c3        1 MOL     -0.223336
     12 C6         -1.5840    0.7960    1.6400 c         1 MOL      0.765010
     13 O3         -2.4020   -0.1340    1.4000 o         1 MOL     -0.782607
     14 O4         -0.6310    1.0140    0.8240 o         1 MOL     -0.782607
     15 H4         -1.4120    3.4940    4.8340 hn        1 MOL      0.343125
     16 H5          0.4580    2.2380    2.9030 h1        1 MOL     -0.044430
     17 H6         -2.5950    2.2340    2.9460 hc        1 MOL      0.053709
     18 H7         -1.4900    1.0920    3.7720 hc        1 MOL      0.053709
     19 N2          0.0050    3.6210    0.7310 n         1 MOL     -0.391481
     20 C7          0.2210    4.6800   -0.1920 c3        1 MOL     -0.227724
     21 C8         -1.0810    5.1040   -0.8790 c         1 MOL      0.425470
     22 O5         -1.2550    6.2750   -1.2700 o         1 MOL     -0.554414
     23 C9          1.3590    4.3450   -1.1280 c3        1 MOL      0.238818
     24 C10         2.0750    5.6910   -1.7980 c3        1 MOL     -0.122103
     25 C11         2.7140    5.5420   -3.1260 c3        1 MOL     -0.115881
     26 C12         3.5510    6.7650   -3.6310 c3        1 MOL      0.204391
     27 N3          4.2940    6.3870   -4.9030 n4        1 MOL     -0.566275
     28 H8          0.4490    2.7220    0.6150 hn        1 MOL      0.291186
     29 H9          0.5490    5.5060    0.4410 h1        1 MOL      0.138673
     30 H10         1.0840    3.6870   -1.9510 hc        1 MOL     -0.004382
     31 H11         2.1430    3.8330   -0.5880 hc        1 MOL     -0.004382
     32 H12         2.7980    6.0540   -1.0600 hc        1 MOL      0.042773
     33 H13         1.3380    6.4660   -1.9780 hc        1 MOL      0.042773
     34 H14         1.9090    5.4710   -3.8640 hc        1 MOL      0.057661
     35 H15         3.2580    4.5970   -3.1420 hc        1 MOL      0.057661
     36 H16         4.2570    7.0890   -2.8780 hx        1 MOL      0.067654
     37 H17         2.9760    7.6790   -3.7800 hx        1 MOL      0.067654
     38 H18         3.6680    6.3690   -5.6950 hn        1 MOL      0.371024
     39 H19         5.0700    7.0110   -5.0750 hn        1 MOL      0.371024
     40 H20         4.7930    5.5050   -4.8860 hn        1 MOL      0.371024
     41 N4         -2.0880    4.2600   -1.0750 n         1 MOL     -0.099542
     42 C13        -3.4290    4.4830   -1.6320 c3        1 MOL     -0.062479
     43 C14        -4.5610    4.2340   -0.5700 c         1 MOL      0.414654
     44 O6         -5.7300    4.6840   -0.8150 o         1 MOL     -0.521858
     45 C15        -3.6150    3.5350   -2.8820 c3        1 MOL     -0.180973
     46 C16        -3.1130    2.1160   -2.6500 c         1 MOL      0.658437
     47 O7         -2.6900    1.5520   -3.6470 o         1 MOL     -0.680073
     48 O8         -3.0690    1.5970   -1.5120 o         1 MOL     -0.680073
     49 H21        -1.8850    3.2990   -0.8450 hn        1 MOL      0.172177
     50 H22        -3.4340    5.5240   -1.9590 h1        1 MOL      0.110485
     51 H23        -2.9900    3.9520   -3.6640 hc        1 MOL      0.070016
     52 H24        -4.6410    3.5130   -3.2430 hc        1 MOL      0.070016
     53 N5         -4.3050    3.5400    0.5620 n         1 MOL     -0.158164
     54 C17        -5.3550    3.0670    1.4410 c3        1 MOL     -0.094161
     55 C18        -6.2430    1.8780    1.0530 c         1 MOL      0.446886
     56 O9         -7.3580    1.6870    1.6130 o         1 MOL     -0.542047
     57 H25        -3.3420    3.4470    0.8370 hn        1 MOL      0.123625
     58 H26        -5.9590    3.8960    1.8290 h1        1 MOL      0.078207
     59 H27        -4.7670    2.6670    2.2710 h1        1 MOL      0.078207
     60 N6         -5.7750    1.1100    0.0170 n         1 MOL     -0.108505
     61 C19        -6.6600    0.2380   -0.7340 c3        1 MOL     -0.045841
     62 C20        -7.0270   -1.0500    0.0010 c         1 MOL      0.375476
     63 O10        -7.8820   -1.7800   -0.5640 o         1 MOL     -0.515307
     64 C21        -6.0440   -0.1010   -2.0740 c3        1 MOL     -0.249095
     65 C22        -5.0070   -1.2070   -1.9360 c         1 MOL      0.621660
     66 N7         -5.1550   -2.2070   -2.7280 n         1 MOL     -0.707969
     67 O11        -4.1820   -1.2050   -1.0190 o         1 MOL     -0.681099
     68 H28        -4.9200    1.3320   -0.4540 hn        1 MOL      0.135240
     69 H29        -7.5240    0.8640   -0.9480 h1        1 MOL      0.124718
     70 H30        -5.5830    0.7490   -2.5690 hc        1 MOL      0.109241
     71 H31        -6.7550   -0.4940   -2.7940 hc        1 MOL      0.109241
     72 H32        -5.9620   -2.3180   -3.3220 hn        1 MOL      0.358230
     73 H33        -4.5090   -2.9890   -2.6790 hn        1 MOL      0.358230
     74 N8         -6.3120   -1.4160    1.0860 n         1 MOL     -0.137310
     75 C23        -6.6150   -2.7200    1.7590 c3        1 MOL     -0.205562
     76 C24        -5.3940   -3.6300    1.8690 c         1 MOL      0.628483
     77 O12        -5.5220   -4.6120    2.6050 o         1 MOL     -0.570133
     78 H34        -5.6940   -0.7590    1.5350 hn        1 MOL      0.196849
     79 H35        -7.4180   -3.1990    1.2050 h1        1 MOL      0.117174
     80 H36        -6.9180   -2.5270    2.7810 h1        1 MOL      0.117174
     81 N9         -4.2420   -3.3430    1.2500 n         1 MOL     -0.481289
     82 C25        -3.1230   -4.1980    1.2590 c3        1 MOL     -0.004120
     83 C26        -1.8010   -3.3350    1.0780 c         1 MOL      0.645999
     84 O13        -1.5360   -2.6610    0.1080 o         1 MOL     -0.655398
     85 C27        -3.1060   -5.3580    0.2040 c3        1 MOL     -0.167731
     86 C28        -2.6060   -5.0360   -1.1650 ca        1 MOL      0.113625
     87 C29        -1.2480   -5.2010   -1.4160 ca        1 MOL     -0.194658
     88 C30        -3.4780   -4.7970   -2.2600 ca        1 MOL     -0.194658
     89 C31        -0.6640   -5.0220   -2.6650 ca        1 MOL     -0.263865
     90 C32        -2.8920   -4.4900   -3.5180 ca        1 MOL     -0.263865
     91 C33        -1.4900   -4.6110   -3.7030 ca        1 MOL      0.401958
     92 O14        -0.9180   -4.2690   -4.9000 oh        1 MOL     -0.599466
     93 H37        -4.2020   -2.5960    0.5690 hn        1 MOL      0.356123
     94 H38        -3.0780   -4.5730    2.2880 h1        1 MOL      0.093677
     95 H39        -4.1190   -5.7240    0.1170 hc        1 MOL      0.085724
     96 H40        -2.4720   -6.1480    0.5950 hc        1 MOL      0.085724
     97 H41        -0.5410   -5.5690   -0.6810 ha        1 MOL      0.158940
     98 H42        -4.5440   -4.8350   -2.1040 ha        1 MOL      0.158940
     99 H43         0.4030   -5.1530   -2.7890 ha        1 MOL      0.146350
    100 H44        -3.5540   -4.2280   -4.3330 ha        1 MOL      0.146350
    101 H45         0.0380   -4.2370   -5.0330 ho        1 MOL      0.423775
    102 N10        -0.9210   -3.3500    2.0660 n         1 MOL     -0.498500
    103 C34         0.4230   -2.6720    1.9780 c3        1 MOL      0.012287
    104 C35         1.4520   -3.5420    1.2430 c         1 MOL      0.422704
    105 O15         1.5690   -4.7330    1.6290 o         1 MOL     -0.550089
    106 C36         1.0480   -2.2040    3.3750 c3        1 MOL      0.219807
    107 C37        -0.0240   -2.0180    4.5220 c3        1 MOL      0.148669
    108 C38         1.9270   -0.9170    3.2560 c3        1 MOL     -0.607831
    109 C39         0.4940   -1.6490    5.9060 c3        1 MOL     -0.098089
    110 H46        -1.2000   -3.7990    2.9340 hn        1 MOL      0.277196
    111 H47         0.3020   -1.7430    1.4170 h1        1 MOL      0.110934
    112 H48         1.6670   -2.9790    3.8420 hc        1 MOL     -0.005379
    113 H49        -0.4800   -2.9980    4.7130 hc        1 MOL     -0.028574
    114 H50        -0.7600   -1.2570    4.2640 hc        1 MOL     -0.028574
    115 H51         2.5760   -0.7150    4.1110 hc        1 MOL      0.142866
    116 H52         2.6280   -1.0150    2.4250 hc        1 MOL      0.142866
    117 H53         1.2940   -0.0420    3.1030 hc        1 MOL      0.142866
    118 H54         0.8640   -0.6240    5.9100 hc        1 MOL      0.019492
    119 H55        -0.3110   -1.6750    6.6350 hc        1 MOL      0.019492
    120 H56         1.2490   -2.3540    6.2480 hc        1 MOL      0.019492
    121 N11         2.1970   -2.9370    0.3050 n         1 MOL     -0.188598
    122 C40         3.3190   -3.6130   -0.3470 c3        1 MOL      0.115388
    123 C41         4.6270   -3.0370    0.1600 c         1 MOL      0.351670
    124 O16         4.7230   -1.9130    0.6810 o         1 MOL     -0.391478
    125 C42         3.2190   -3.6190   -1.8630 c3        1 MOL      0.170222
    126 O17         3.0950   -2.2700   -2.2890 oh        1 MOL     -0.547746
    127 H57         2.0310   -1.9800    0.0080 hn        1 MOL      0.199770
    128 H58         3.3120   -4.6670   -0.0490 h1        1 MOL      0.000235
    129 H59         2.4870   -4.3300   -2.2580 h1        1 MOL     -0.000614
    130 H60         4.2000   -3.9610   -2.1900 h1        1 MOL     -0.000614
    131 H61         2.2370   -1.9520   -1.9820 ho        1 MOL      0.318669
    132 N12         5.6550   -3.8210   -0.0170 n         1 MOL     -0.357769
    133 C43         6.9410   -3.5050    0.6470 c3        1 MOL      0.106128
    134 C44         7.5950   -2.1740    0.2070 c         1 MOL      0.437377
    135 O18         8.1250   -1.4990    1.0440 o         1 MOL     -0.488931
    136 C45         7.9390   -4.7050    0.3870 c3        1 MOL     -0.436455
    137 H62         5.5710   -4.7380   -0.4290 hn        1 MOL      0.286242
    138 H63         6.7560   -3.3130    1.7040 h1        1 MOL      0.079977
    139 H64         8.7480   -4.5360    1.0910 hc        1 MOL      0.131876
    140 H65         7.4490   -5.6660    0.5650 hc        1 MOL      0.131876
    141 H66         8.2240   -4.7680   -0.6530 hc        1 MOL      0.131876
    142 N13         7.4020   -1.7810   -1.0760 n         1 MOL     -0.268725
    143 C46         7.8020   -0.4860   -1.5440 c3        1 MOL      0.018519
    144 C47         6.9390    0.7070   -1.0330 c         1 MOL      0.399775
    145 O19         7.4290    1.8650   -0.9530 o         1 MOL     -0.518854
    146 C48         8.0530   -0.6880   -3.0350 c3        1 MOL     -0.172306
    147 H67         7.0370   -2.4570   -1.7380 hn        1 MOL      0.224440
    148 H68         8.7770   -0.3080   -1.1000 h1        1 MOL      0.093097
    149 H69         7.0970   -0.6920   -3.5680 hc        1 MOL      0.054901
    150 H70         8.5930    0.0760   -3.6010 hc        1 MOL      0.054901
    151 H71         8.6200   -1.6170   -3.1210 hc        1 MOL      0.054901
    152 N14         5.6600    0.4060   -0.6700 n         1 MOL     -0.236751
    153 C49         4.7440    1.4750   -0.0850 c3        1 MOL     -0.062122
    154 C50         5.2240    1.7500    1.3730 c         1 MOL      0.439008
    155 O20         5.1890    2.9430    1.6890 o         1 MOL     -0.533177
    156 C51         3.2850    1.0760   -0.0710 c3        1 MOL      0.007827
    157 C52         2.8480    0.8710   -1.5280 c3        1 MOL     -0.006098
    158 C53         1.3940    0.2560   -1.5860 c         1 MOL      0.686311
    159 O21         1.1410   -0.8830   -1.1400 o         1 MOL     -0.723404
    160 O22         0.3930    0.8860   -2.0870 o         1 MOL     -0.723404
    161 H72         5.4430   -0.5790   -0.6290 hn        1 MOL      0.163311
    162 H73         4.9030    2.4310   -0.6010 h1        1 MOL      0.090407
    163 H74         2.7700    1.8360    0.5170 hc        1 MOL      0.039233
    164 H75         3.1170    0.1850    0.5250 hc        1 MOL      0.039233
    165 H76         3.4960    0.1900   -2.0850 hc        1 MOL     -0.029168
    166 H77         2.8040    1.8530   -2.0130 hc        1 MOL     -0.029168
    167 N15         5.6070    0.7170    2.1150 n         1 MOL     -0.135045
    168 C54         6.3310    0.7950    3.4140 c3        1 MOL     -0.230670
    169 H78         5.7200    0.3470    4.1970 h1        1 MOL      0.105091
    170 H79         7.2760    0.2560    3.3380 h1        1 MOL      0.105091
    171 H80         6.5270    1.8390    3.6600 h1        1 MOL      0.105091
    172 H81         5.3070   -0.1900    1.7830 hn        1 MOL      0.194519
    173 Ca1        -1.5850   -0.4930   -1.1060 Ca        1 MOL      1.776575
    174 O23        -0.9600   -1.3610   -3.4870 oh        1 MOL     -0.852106
    175 H82        -1.2650   -1.7190   -4.3260 ho        1 MOL      0.419372
    176 H83        -0.1040   -0.9810   -3.6970 ho        1 MOL      0.419372
@<TRIPOS>BOND
     1    1    2 1   
     2    1    4 1   
     3    1    5 1   
     4    1    6 1   
     5    2    3 2   
     6    2    7 1   
     7    7    8 1   
     8    7   15 1   
     9    8    9 1   
    10    8   11 1   
    11    8   16 1   
    12    9   10 2   
    13    9   19 1   
    14   11   12 1   
    15   11   17 1   
    16   11   18 1   
    17   12   13 1   
    18   12   14 1   
    19   19   20 1   
    20   19   28 1   
    21   20   21 1   
    22   20   23 1   
    23   20   29 1   
    24   21   22 2   
    25   21   41 1   
    26   23   24 1   
    27   23   30 1   
    28   23   31 1   
    29   24   25 1   
    30   24   32 1   
    31   24   33 1   
    32   25   26 1   
    33   25   34 1   
    34   25   35 1   
    35   26   27 1   
    36   26   36 1   
    37   26   37 1   
    38   27   38 1   
    39   27   39 1   
    40   27   40 1   
    41   41   42 1   
    42   41   49 1   
    43   42   43 1   
    44   42   45 1   
    45   42   50 1   
    46   43   44 2   
    47   43   53 1   
    48   45   46 1   
    49   45   51 1   
    50   45   52 1   
    51   46   47 1   
    52   46   48 1   
    53   53   54 1   
    54   53   57 1   
    55   54   55 1   
    56   54   58 1   
    57   54   59 1   
    58   55   56 2   
    59   55   60 1   
    60   60   61 1   
    61   60   68 1   
    62   61   62 1   
    63   61   64 1   
    64   61   69 1   
    65   62   63 2   
    66   62   74 1   
    67   64   65 1   
    68   64   70 1   
    69   64   71 1   
    70   65   66 1   
    71   65   67 2   
    72   66   72 1   
    73   66   73 1   
    74   74   75 1   
    75   74   78 1   
    76   75   76 1   
    77   75   79 1   
    78   75   80 1   
    79   76   77 2   
    80   76   81 1   
    81   81   82 1   
    82   81   93 1   
    83   82   83 1   
    84   82   85 1   
    85   82   94 1   
    86   83   84 2   
    87   83  102 1   
    88   85   86 1   
    89   85   95 1   
    90   85   96 1   
    91   86   87 ar  
    92   86   88 ar  
    93   87   89 ar  
    94   87   97 1   
    95   88   90 ar  
    96   88   98 1   
    97   89   91 ar  
    98   89   99 1   
    99   90   91 ar  
   100   90  100 1   
   101   91   92 1   
   102   92  101 1   
   103  102  103 1   
   104  102  110 1   
   105  103  104 1   
   106  103  106 1   
   107  103  111 1   
   108  104  105 2   
   109  104  121 1   
   110  106  107 1   
   111  106  108 1   
   112  106  112 1   
   113  107  109 1   
   114  107  113 1   
   115  107  114 1   
   116  108  115 1   
   117  108  116 1   
   118  108  117 1   
   119  109  118 1   
   120  109  119 1   
   121  109  120 1   
   122  121  122 1   
   123  121  127 1   
   124  122  123 1   
   125  122  125 1   
   126  122  128 1   
   127  123  124 2   
   128  123  132 1   
   129  125  126 1   
   130  125  129 1   
   131  125  130 1   
   132  126  131 1   
   133  132  133 1   
   134  132  137 1   
   135  133  134 1   
   136  133  136 1   
   137  133  138 1   
   138  134  135 2   
   139  134  142 1   
   140  136  139 1   
   141  136  140 1   
   142  136  141 1   
   143  142  143 1   
   144  142  147 1   
   145  143  144 1   
   146  143  146 1   
   147  143  148 1   
   148  144  145 2   
   149  144  152 1   
   150  146  149 1   
   151  146  150 1   
   152  146  151 1   
   153  152  153 1   
   154  152  161 1   
   155  153  154 1   
   156  153  156 1   
   157  153  162 1   
   158  154  155 2   
   159  154  167 1   
   160  156  157 1   
   161  156  163 1   
   162  156  164 1   
   163  157  158 1   
   164  157  165 1   
   165  157  166 1   
   166  158  159 1   
   167  158  160 1   
   168  167  168 1   
   169  167  172 1   
   170  168  169 1   
   171  168  170 1   
   172  168  171 1   
   173  174  175 1   
   174  174  176 1   
@<TRIPOS>SUBSTRUCTURE
     1 MOL         1 TEMP              0 ****  ****    0 ROOT
