@<TRIPOS>MOLECULE
MOL
  172   171     1     0     0
SMALL
resp


@<TRIPOS>ATOM
      1 C1          0.5990    3.6200    5.5750 c3        1 MOL     -0.418279
      2 C2         -0.0980    3.6620    4.2260 c         1 MOL      0.693439
      3 O1          0.5560    4.0540    3.2600 o         1 MOL     -0.583008
      4 H1          1.3680    2.8470    5.5620 hc        1 MOL      0.100993
      5 H2          1.0600    4.5870    5.7770 hc        1 MOL      0.100993
      6 H3         -0.1290    3.3940    6.3540 hc        1 MOL      0.100993
      7 N1         -1.3390    3.2170    4.1030 n         1 MOL     -0.583422
      8 C3         -2.0030    3.1080    2.8740 c3        1 MOL      0.389105
      9 C4         -2.0500    4.4110    1.9630 c         1 MOL      0.355116
     10 O2         -2.5770    5.4410    2.4170 o         1 MOL     -0.575845
     11 C5         -3.4730    2.7640    3.0890 c3        1 MOL     -0.483522
     12 C6         -4.1850    2.3230    1.7760 c         1 MOL      0.869492
     13 O3         -5.3760    2.2250    1.7840 o         1 MOL     -0.674314
     14 O4         -3.4940    2.1710    0.7300 o         1 MOL     -0.674314
     15 H4         -1.8580    3.0330    4.9480 hn        1 MOL      0.312309
     16 H5         -1.6100    2.2300    2.3660 h1        1 MOL     -0.037584
     17 H6         -4.0250    3.5790    3.5530 hc        1 MOL      0.074659
     18 H7         -3.5280    1.9030    3.7560 hc        1 MOL      0.074659
     19 N2         -1.5760    4.3250    0.7270 n         1 MOL     -0.184832
     20 C7         -1.6140    5.3660   -0.1990 c3        1 MOL      0.199446
     21 C8         -2.5600    5.1630   -1.4890 c         1 MOL      0.372944
     22 O5         -2.3380    5.9760   -2.4120 o         1 MOL     -0.544059
     23 C9         -0.1560    5.6070   -0.6290 c3        1 MOL     -0.115661
     24 H8         -1.2940    3.4060    0.4240 hn        1 MOL      0.366476
     25 H9         -1.9190    6.3130    0.2480 h1        1 MOL      0.028247
     26 H10         0.5220    5.6850    0.2190 hc        1 MOL      0.013483
     27 H11         0.1350    4.7070   -1.1750 hc        1 MOL      0.013483
     28 H12        -0.0660    6.5580   -1.1420 hc        1 MOL      0.013483
     29 N3         -3.3970    4.1200   -1.5230 n         1 MOL     -0.302859
     30 C10        -4.3030    3.7870   -2.6580 c3        1 MOL      0.233423
     31 C11        -5.7200    3.2590   -2.2110 c         1 MOL      0.319371
     32 O6         -6.7170    3.5770   -2.9230 o         1 MOL     -0.562049
     33 C12        -3.7010    2.8330   -3.7540 c3        1 MOL     -0.153283
     34 C13        -3.1260    1.6090   -3.0830 c         1 MOL      0.737516
     35 O7         -3.6310    1.0880   -2.0320 o         1 MOL     -0.685654
     36 O8         -2.0860    1.2140   -3.5720 o         1 MOL     -0.685654
     37 H13        -3.4530    3.4950   -0.7300 hn        1 MOL      0.085579
     38 H14        -4.4520    4.6610   -3.2750 h1        1 MOL      0.010004
     39 H15        -2.8770    3.3430   -4.2700 hc        1 MOL      0.038458
     40 H16        -4.4730    2.4950   -4.4350 hc        1 MOL      0.038458
     41 N4         -5.9340    2.5550   -1.0790 n         1 MOL     -0.110332
     42 C14        -7.1590    1.9200   -0.6940 c3        1 MOL     -0.182300
     43 C15        -7.3210    0.4570   -0.9910 c         1 MOL      0.463231
     44 O9         -8.4000   -0.0900   -0.7020 o         1 MOL     -0.591938
     45 H17        -5.0960    2.1490   -0.6940 hn        1 MOL      0.073212
     46 H18        -7.9970    2.4240   -1.1660 h1        1 MOL      0.120261
     47 H19        -7.3040    2.0370    0.3760 h1        1 MOL      0.120261
     48 N5         -6.2720   -0.2210   -1.5180 n         1 MOL     -0.093657
     49 C16        -6.3540   -1.5950   -1.9470 c3        1 MOL     -0.089845
     50 C17        -6.4960   -2.6990   -0.9390 c         1 MOL      0.464195
     51 O10        -6.8550   -3.8640   -1.1410 o         1 MOL     -0.550103
     52 C18        -5.3070   -1.8280   -3.0690 c3        1 MOL     -0.048012
     53 C19        -3.9160   -2.0190   -2.5400 c         1 MOL      0.542291
     54 N6         -2.8270   -2.1090   -3.3100 n         1 MOL     -0.602579
     55 O11        -3.6820   -2.0920   -1.3570 o         1 MOL     -0.485119
     56 H20        -5.3770    0.2060   -1.7190 hn        1 MOL      0.098139
     57 H21        -7.2990   -1.6040   -2.4670 h1        1 MOL      0.094360
     58 H22        -5.2960   -0.9560   -3.7280 hc        1 MOL      0.029942
     59 H23        -5.5520   -2.6910   -3.6790 hc        1 MOL      0.029942
     60 H24        -2.9490   -2.1600   -4.3140 hn        1 MOL      0.302995
     61 H25        -1.8810   -1.9750   -2.9940 hn        1 MOL      0.302995
     62 N7         -6.2560   -2.3880    0.3000 n         1 MOL     -0.221936
     63 C20        -6.4630   -3.3450    1.4750 c3        1 MOL     -0.249717
     64 C21        -5.2540   -4.2430    1.7010 c         1 MOL      0.461147
     65 O12        -5.2910   -5.3070    2.3940 o         1 MOL     -0.568719
     66 H26        -6.0710   -1.4200    0.4980 hn        1 MOL      0.263040
     67 H27        -7.2870   -4.0150    1.2260 h1        1 MOL      0.134444
     68 H28        -6.7980   -2.8410    2.3790 h1        1 MOL      0.134444
     69 N8         -4.1710   -3.8200    1.0830 n         1 MOL     -0.009162
     70 C22        -2.9550   -4.5770    1.1990 c3        1 MOL     -0.303316
     71 C23        -1.6930   -3.6570    1.1930 c         1 MOL      0.464327
     72 O13        -1.6390   -2.5900    0.5710 o         1 MOL     -0.471561
     73 C24        -2.6870   -5.4530   -0.1100 c3        1 MOL      0.634388
     74 C25        -3.6480   -6.7050   -0.2240 c3        1 MOL     -0.505807
     75 O14        -2.7800   -4.7450   -1.3120 oh        1 MOL     -0.568488
     76 H29        -4.1900   -2.8980    0.6580 hn        1 MOL      0.069413
     77 H30        -3.0200   -5.1440    2.1240 h1        1 MOL      0.108916
     78 H31        -1.7320   -5.9450    0.0250 h1        1 MOL     -0.073490
     79 H32        -2.6080   -3.8420   -1.0460 ho        1 MOL      0.269600
     80 H33        -4.6440   -6.4960   -0.6050 hc        1 MOL      0.121533
     81 H34        -3.1210   -7.3550   -0.9120 hc        1 MOL      0.121533
     82 H35        -3.7490   -7.1900    0.7490 hc        1 MOL      0.121533
     83 N9         -0.5860   -3.9320    1.8810 n         1 MOL     -0.429673
     84 C26         0.5920   -3.0330    1.9070 c3        1 MOL     -0.059732
     85 C27         1.4180   -3.1770    0.6540 c         1 MOL      0.613437
     86 O15         1.8640   -4.2760    0.2910 o         1 MOL     -0.597238
     87 C28         1.4480   -3.1700    3.1790 c3        1 MOL      0.224660
     88 C29         0.5810   -2.6520    4.4270 c3        1 MOL     -0.028969
     89 C30         2.7570   -2.4190    3.0740 c3        1 MOL     -0.161455
     90 C31         1.3480   -3.1650    5.7220 c3        1 MOL     -0.106752
     91 H36        -0.5510   -4.8530    2.3130 hn        1 MOL      0.273110
     92 H37         0.3100   -1.9850    1.8040 h1        1 MOL      0.051955
     93 H38         1.7080   -4.2340    3.2630 hc        1 MOL     -0.039510
     94 H39        -0.4510   -3.0220    4.4580 hc        1 MOL      0.002986
     95 H40         0.5720   -1.5690    4.3620 hc        1 MOL      0.002986
     96 H41         2.4840   -1.4150    2.7410 hc        1 MOL      0.035661
     97 H42         3.3470   -2.5600    3.9850 hc        1 MOL      0.035661
     98 H43         3.3470   -2.9370    2.3110 hc        1 MOL      0.035661
     99 H44         0.6780   -3.1060    6.5740 hc        1 MOL      0.020200
    100 H45         1.5450   -4.2350    5.6950 hc        1 MOL      0.020200
    101 H46         2.2910   -2.6440    5.8960 hc        1 MOL      0.020200
    102 N10         1.5770   -2.0320    0.0010 n         1 MOL     -0.318898
    103 C32         2.4430   -1.9600   -1.1580 c3        1 MOL      0.068650
    104 C33         3.8870   -1.5830   -0.8700 c         1 MOL      0.488073
    105 O16         4.1040   -1.1110    0.2670 o         1 MOL     -0.458079
    106 C34         1.8050   -1.1090   -2.2850 c3        1 MOL     -0.359372
    107 C35         0.3740   -1.5580   -2.7390 c         1 MOL      0.753099
    108 O17        -0.5770   -1.2730   -1.9280 o         1 MOL     -0.649967
    109 O18         0.1450   -2.1070   -3.8080 o         1 MOL     -0.649967
    110 H47         1.2380   -1.1660    0.3810 hn        1 MOL      0.214425
    111 H48         2.4510   -2.9850   -1.5280 h1        1 MOL      0.058642
    112 H49         2.4790   -1.1610   -3.1310 hc        1 MOL      0.086955
    113 H50         1.7770   -0.0710   -1.9700 hc        1 MOL      0.086955
    114 N11         4.8410   -1.6070   -1.7880 n         1 MOL     -0.612107
    115 C36         6.2860   -1.4000   -1.4590 c3        1 MOL      0.221062
    116 C37         6.6070   -0.0270   -0.8970 c         1 MOL      0.404332
    117 O19         7.2600   -0.0190    0.1810 o         1 MOL     -0.465318
    118 C38         7.1360   -1.8470   -2.6680 c3        1 MOL     -0.222567
    119 C39         8.6510   -1.7060   -2.4070 ca        1 MOL      0.087082
    120 C40         9.2570   -2.2830   -1.3020 ca        1 MOL     -0.167979
    121 C41         9.4910   -1.0010   -3.3340 ca        1 MOL     -0.167979
    122 C42        10.6390   -2.1660   -1.0130 ca        1 MOL     -0.123112
    123 C43        10.8630   -0.8430   -3.0580 ca        1 MOL     -0.123112
    124 C44        11.4300   -1.3650   -1.8520 ca        1 MOL     -0.077910
    125 H51         4.5930   -1.9500   -2.7030 hn        1 MOL      0.345570
    126 H52         6.6160   -2.0370   -0.6400 h1        1 MOL      0.091973
    127 H53         6.8860   -1.1960   -3.5080 hc        1 MOL      0.083421
    128 H54         6.9120   -2.8480   -3.0370 hc        1 MOL      0.083421
    129 H55         8.7030   -2.8980   -0.6090 ha        1 MOL      0.121220
    130 H56         9.1310   -0.5450   -4.2470 ha        1 MOL      0.121220
    131 H57        11.0440   -2.7630   -0.1990 ha        1 MOL      0.116069
    132 H58        11.4140   -0.2930   -3.8030 ha        1 MOL      0.116069
    133 H59        12.5060   -1.3880   -1.7720 ha        1 MOL      0.082722
    134 N12         6.3690    1.1150   -1.6170 n         1 MOL     -0.148828
    135 C45         6.6390    2.3800   -0.9140 c3        1 MOL      0.012048
    136 C46         5.8670    2.5220    0.4150 c         1 MOL      0.277713
    137 O20         6.3190    3.2920    1.2540 o         1 MOL     -0.490085
    138 C47         6.1580    3.4080   -1.8880 c3        1 MOL     -0.124500
    139 C48         5.0470    2.7440   -2.7160 c3        1 MOL      0.000174
    140 C49         5.6680    1.3280   -2.8920 c3        1 MOL      0.058948
    141 H60         7.7180    2.4070   -0.7810 h1        1 MOL      0.084643
    142 H61         5.5690    4.1850   -1.3930 hc        1 MOL      0.062325
    143 H62         6.9620    3.9020   -2.4400 hc        1 MOL      0.062325
    144 H63         4.1200    2.6520   -2.1490 hc        1 MOL      0.031955
    145 H64         4.8670    3.2000   -3.6990 hc        1 MOL      0.031955
    146 H65         4.9750    0.5070   -3.0690 h1        1 MOL      0.000528
    147 H66         6.4400    1.2850   -3.6640 h1        1 MOL      0.000528
    148 N13         4.7120    1.8910    0.6610 n         1 MOL     -0.084892
    149 C50         4.0520    1.8570    1.9210 c3        1 MOL     -0.228290
    150 C51         4.8240    0.9730    2.9570 c         1 MOL      0.410385
    151 O21         4.8150    1.2360    4.1610 o         1 MOL     -0.544047
    152 C52         2.5930    1.3660    1.6960 c3        1 MOL     -0.037047
    153 C53         1.7910    1.9130    0.5260 c3        1 MOL     -0.031029
    154 C54         0.3920    1.3370    0.4760 c         1 MOL      0.629676
    155 O22         0.0870    0.3590    1.1950 o         1 MOL     -0.763710
    156 O23        -0.4970    1.8200   -0.2100 o         1 MOL     -0.763710
    157 H67         4.3640    1.2520   -0.0410 hn        1 MOL      0.249545
    158 H68         4.1910    2.8310    2.3810 h1        1 MOL      0.162660
    159 H69         2.0300    1.6260    2.5980 hc        1 MOL      0.092196
    160 H70         2.4400    0.2830    1.6420 hc        1 MOL      0.092196
    161 H71         2.2810    1.7540   -0.4300 hc        1 MOL      0.010199
    162 H72         1.5740    2.9700    0.6780 hc        1 MOL      0.010199
    163 N14         5.6310   -0.0280    2.5130 n         1 MOL      0.037743
    164 C55         6.4450   -0.8130    3.3730 c3        1 MOL     -0.185674
    165 H73         6.2600   -1.8700    3.1830 h1        1 MOL      0.062250
    166 H74         7.4950   -0.5880    3.1850 h1        1 MOL      0.062250
    167 H75         6.2040   -0.5820    4.4110 h1        1 MOL      0.062250
    168 H76         5.7410   -0.2310    1.5330 hn        1 MOL      0.033715
    169 Ca1        -2.1960   -0.0900   -0.1990 Ca        1 MOL      1.678051
    170 O24        -3.9810   -0.7900    1.6980 oh        1 MOL     -0.937882
    171 H77        -4.7610   -0.5460    2.1790 ho        1 MOL      0.438705
    172 H78        -3.3080   -0.9070    2.3730 ho        1 MOL      0.438705
@<TRIPOS>BOND
     1    1    2 1   
     2    1    4 1   
     3    1    5 1   
     4    1    6 1   
     5    2    3 2   
     6    2    7 1   
     7    7    8 1   
     8    7   15 1   
     9    8    9 1   
    10    8   11 1   
    11    8   16 1   
    12    9   10 2   
    13    9   19 1   
    14   11   12 1   
    15   11   17 1   
    16   11   18 1   
    17   12   13 1   
    18   12   14 1   
    19   19   20 1   
    20   19   24 1   
    21   20   21 1   
    22   20   23 1   
    23   20   25 1   
    24   21   22 2   
    25   21   29 1   
    26   23   26 1   
    27   23   27 1   
    28   23   28 1   
    29   29   30 1   
    30   29   37 1   
    31   30   31 1   
    32   30   33 1   
    33   30   38 1   
    34   31   32 2   
    35   31   41 1   
    36   33   34 1   
    37   33   39 1   
    38   33   40 1   
    39   34   35 1   
    40   34   36 1   
    41   41   42 1   
    42   41   45 1   
    43   42   43 1   
    44   42   46 1   
    45   42   47 1   
    46   43   44 2   
    47   43   48 1   
    48   48   49 1   
    49   48   56 1   
    50   49   50 1   
    51   49   52 1   
    52   49   57 1   
    53   50   51 2   
    54   50   62 1   
    55   52   53 1   
    56   52   58 1   
    57   52   59 1   
    58   53   54 1   
    59   53   55 2   
    60   54   60 1   
    61   54   61 1   
    62   62   63 1   
    63   62   66 1   
    64   63   64 1   
    65   63   67 1   
    66   63   68 1   
    67   64   65 2   
    68   64   69 1   
    69   69   70 1   
    70   69   76 1   
    71   70   71 1   
    72   70   73 1   
    73   70   77 1   
    74   71   72 2   
    75   71   83 1   
    76   73   74 1   
    77   73   75 1   
    78   73   78 1   
    79   74   80 1   
    80   74   81 1   
    81   74   82 1   
    82   75   79 1   
    83   83   84 1   
    84   83   91 1   
    85   84   85 1   
    86   84   87 1   
    87   84   92 1   
    88   85   86 2   
    89   85  102 1   
    90   87   88 1   
    91   87   89 1   
    92   87   93 1   
    93   88   90 1   
    94   88   94 1   
    95   88   95 1   
    96   89   96 1   
    97   89   97 1   
    98   89   98 1   
    99   90   99 1   
   100   90  100 1   
   101   90  101 1   
   102  102  103 1   
   103  102  110 1   
   104  103  104 1   
   105  103  106 1   
   106  103  111 1   
   107  104  105 2   
   108  104  114 1   
   109  106  107 1   
   110  106  112 1   
   111  106  113 1   
   112  107  108 1   
   113  107  109 1   
   114  114  115 1   
   115  114  125 1   
   116  115  116 1   
   117  115  118 1   
   118  115  126 1   
   119  116  117 2   
   120  116  134 1   
   121  118  119 1   
   122  118  127 1   
   123  118  128 1   
   124  119  120 ar  
   125  119  121 ar  
   126  120  122 ar  
   127  120  129 1   
   128  121  123 ar  
   129  121  130 1   
   130  122  124 ar  
   131  122  131 1   
   132  123  124 ar  
   133  123  132 1   
   134  124  133 1   
   135  134  135 1   
   136  134  140 1   
   137  135  136 1   
   138  135  138 1   
   139  135  141 1   
   140  136  137 2   
   141  136  148 1   
   142  138  139 1   
   143  138  142 1   
   144  138  143 1   
   145  139  140 1   
   146  139  144 1   
   147  139  145 1   
   148  140  146 1   
   149  140  147 1   
   150  148  149 1   
   151  148  157 1   
   152  149  150 1   
   153  149  152 1   
   154  149  158 1   
   155  150  151 2   
   156  150  163 1   
   157  152  153 1   
   158  152  159 1   
   159  152  160 1   
   160  153  154 1   
   161  153  161 1   
   162  153  162 1   
   163  154  155 1   
   164  154  156 1   
   165  163  164 1   
   166  163  168 1   
   167  164  165 1   
   168  164  166 1   
   169  164  167 1   
   170  170  171 1   
   171  170  172 1   
@<TRIPOS>SUBSTRUCTURE
     1 MOL         1 TEMP              0 ****  ****    0 ROOT
