@<TRIPOS>MOLECULE
MOL
  189   185     1     0     0
SMALL
resp


@<TRIPOS>ATOM
      1 C1          1.8180   -3.2980    6.0270 c3        1 MOL     -0.308220
      2 C2          2.2280   -2.8640    4.5680 c         1 MOL      0.647550
      3 O1          2.2960   -1.6890    4.3010 o         1 MOL     -0.511928
      4 H1          2.5650   -2.9410    6.7360 hc        1 MOL      0.077294
      5 H2          0.8480   -2.8680    6.2760 hc        1 MOL      0.077294
      6 H3          1.7590   -4.3850    6.0810 hc        1 MOL      0.077294
      7 N1          2.5060   -3.8820    3.7090 n         1 MOL     -0.488276
      8 C3          2.9650   -3.7300    2.3840 c3        1 MOL      0.118402
      9 C4          2.5880   -4.8890    1.4530 c         1 MOL      0.450918
     10 O2          2.7380   -6.0490    1.8470 o         1 MOL     -0.580128
     11 C5          4.4620   -3.4700    2.3910 c3        1 MOL     -0.227366
     12 C6          4.8850   -2.9030    1.0530 c         1 MOL      0.675519
     13 O3          4.0340   -2.2470    0.3460 o         1 MOL     -0.634819
     14 O4          6.0710   -3.0570    0.7740 o         1 MOL     -0.634819
     15 H4          2.5540   -4.8510    3.9970 hn        1 MOL      0.295719
     16 H5          2.4530   -2.9000    1.8790 h1        1 MOL     -0.015594
     17 H6          4.9170   -4.4590    2.4520 hc        1 MOL      0.049117
     18 H7          4.9080   -2.9810    3.2670 hc        1 MOL      0.049117
     19 N2          2.0700   -4.5980    0.2610 n         1 MOL     -0.091746
     20 C7          1.9110   -5.5030   -0.8090 c3        1 MOL     -0.049075
     21 C8          2.5250   -4.9800   -2.1100 c         1 MOL      0.388475
     22 O5          2.3480   -5.6570   -3.1150 o         1 MOL     -0.546138
     23 C9          0.3850   -5.9750   -1.0690 c3        1 MOL      0.213603
     24 C10        -0.5670   -4.8860   -1.5190 c3        1 MOL     -0.135963
     25 C11        -0.0970   -6.5710    0.1670 c3        1 MOL     -0.182512
     26 C12        -2.0620   -5.2250   -1.7330 c3        1 MOL     -0.200424
     27 H8          1.9680   -3.6210    0.0670 hn        1 MOL      0.223123
     28 H9          2.4050   -6.4510   -0.6000 h1        1 MOL      0.073635
     29 H10         0.4610   -6.7600   -1.8210 hc        1 MOL     -0.016074
     30 H11        -0.1880   -4.4620   -2.4500 hc        1 MOL      0.079452
     31 H12        -0.5300   -4.0430   -0.8410 hc        1 MOL      0.079452
     32 H13        -0.8810   -7.2990   -0.0510 hc        1 MOL      0.021450
     33 H14         0.6730   -7.1490    0.6810 hc        1 MOL      0.021450
     34 H15        -0.3620   -5.8510    0.9380 hc        1 MOL      0.021450
     35 H16        -2.4660   -4.4060   -2.3340 hc        1 MOL      0.058994
     36 H17        -2.1340   -6.1970   -2.2190 hc        1 MOL      0.058994
     37 H18        -2.6330   -5.2440   -0.7990 hc        1 MOL      0.058994
     38 N3          3.1590   -3.7640   -2.1840 n         1 MOL     -0.228942
     39 C13         3.5820   -3.1790   -3.4850 c3        1 MOL      0.006525
     40 C14         4.8810   -2.4180   -3.4870 c         1 MOL      0.422794
     41 O6          5.1450   -1.8190   -4.5430 o         1 MOL     -0.505155
     42 C15         2.3400   -2.3590   -3.9990 c3        1 MOL     -0.120759
     43 C16         2.0100   -1.0570   -3.2830 c         1 MOL      0.794209
     44 O7          2.6300   -0.7290   -2.2620 o         1 MOL     -0.710757
     45 O8          1.0210   -0.3790   -3.6410 o         1 MOL     -0.710757
     46 H19         3.3140   -3.1700   -1.3860 hn        1 MOL     -0.003094
     47 H20         3.6960   -3.9980   -4.1940 h1        1 MOL      0.104519
     48 H21         1.4810   -3.0030   -3.8190 hc        1 MOL      0.025824
     49 H22         2.4910   -2.1140   -5.0510 hc        1 MOL      0.025824
     50 N4          5.6970   -2.4610   -2.3850 n         1 MOL     -0.330882
     51 C17         7.0080   -1.8090   -2.3590 c3        1 MOL     -0.171487
     52 C18         7.0380   -0.2550   -2.4210 c         1 MOL      0.552882
     53 O9          8.1040    0.3830   -2.3060 o         1 MOL     -0.623945
     54 H23         5.3980   -3.0890   -1.6540 hn        1 MOL      0.281374
     55 H24         7.5930   -2.1520   -3.2140 h1        1 MOL      0.104396
     56 H25         7.5450   -2.1150   -1.4590 h1        1 MOL      0.104396
     57 N5          5.9260    0.4110   -2.5890 n         1 MOL     -0.294662
     58 C19         5.8640    1.8790   -2.9730 c3        1 MOL      0.179459
     59 C20         6.3700    2.8000   -1.8370 c         1 MOL      0.331731
     60 O10         6.7980    3.9380   -2.0770 o         1 MOL     -0.570040
     61 C21         4.3980    2.3500   -3.4310 c3        1 MOL     -0.420207
     62 C22         3.4190    2.3650   -2.3240 c         1 MOL      0.827848
     63 O11         3.5800    1.6950   -1.3000 o         1 MOL     -0.723051
     64 O12         2.2630    2.8360   -2.5110 o         1 MOL     -0.723051
     65 H26         5.1200   -0.1550   -2.8100 hn        1 MOL      0.169137
     66 H27         6.4680    2.0720   -3.8540 h1        1 MOL      0.043548
     67 H28         4.0020    1.6720   -4.1900 hc        1 MOL      0.124213
     68 H29         4.4160    3.3250   -3.9060 hc        1 MOL      0.124213
     69 N6          6.3090    2.3700   -0.5940 n         1 MOL      0.161030
     70 C23         6.6670    3.0480    0.5850 c3        1 MOL     -0.510278
     71 C24         5.5790    3.9630    1.2950 c         1 MOL      0.628259
     72 O13         5.9930    4.8650    2.0560 o         1 MOL     -0.595037
     73 H30         5.9040    1.4530   -0.4770 hn        1 MOL      0.074684
     74 H31         7.4890    3.7080    0.3240 h1        1 MOL      0.166273
     75 H32         6.8310    2.2540    1.3130 h1        1 MOL      0.166273
     76 N7          4.2870    3.7060    1.0590 n         1 MOL     -0.285416
     77 C25         3.1820    4.2850    1.7550 c3        1 MOL      0.008435
     78 C26         2.0620    3.2400    1.8530 c         1 MOL      0.327680
     79 O14         1.9240    2.4320    0.9380 o         1 MOL     -0.376260
     80 C27         2.6520    5.4740    0.9610 c3        1 MOL      0.042101
     81 C28         3.5600    6.2280   -0.0490 c3        1 MOL     -0.219865
     82 C29         2.8950    7.6060   -0.5190 c         1 MOL      0.634809
     83 N8          2.2990    7.7780   -1.6530 n         1 MOL     -0.760059
     84 O15         2.9650    8.5400    0.2070 o         1 MOL     -0.581420
     85 H33         3.9980    2.9590    0.4280 hn        1 MOL      0.155015
     86 H34         3.5400    4.6350    2.7230 h1        1 MOL      0.053790
     87 H35         2.3340    6.2560    1.6460 hc        1 MOL      0.023855
     88 H36         1.7740    5.1710    0.3890 hc        1 MOL      0.023855
     89 H37         3.7340    5.5480   -0.8820 hc        1 MOL      0.080907
     90 H38         4.5220    6.5310    0.3490 hc        1 MOL      0.080907
     91 H39         2.2580    7.0070   -2.3030 hn        1 MOL      0.352394
     92 H40         1.8550    8.6760   -1.7830 hn        1 MOL      0.352394
     93 N9          1.2550    3.2750    2.9070 n         1 MOL     -0.403025
     94 C30         0.1170    2.4230    3.1300 c3        1 MOL      0.029152
     95 C31        -1.1140    2.9750    2.5570 c         1 MOL      0.528750
     96 O16        -1.4990    4.0380    2.9140 o         1 MOL     -0.607304
     97 C32        -0.0840    1.9040    4.5660 c3        1 MOL      0.266241
     98 C33        -0.9510    0.6670    4.6420 c3        1 MOL     -0.349443
     99 C34         1.1970    1.4720    5.2960 c3        1 MOL     -0.349443
    100 H41         1.3870    4.0220    3.5660 hn        1 MOL      0.286705
    101 H42         0.4060    1.5360    2.5720 h1        1 MOL     -0.009190
    102 H43        -0.6010    2.6520    5.1680 hc        1 MOL     -0.038244
    103 H44        -1.2790    0.4510    5.6700 hc        1 MOL      0.078240
    104 H45        -1.8500    0.8190    4.0480 hc        1 MOL      0.078240
    105 H46        -0.3960   -0.1780    4.2270 hc        1 MOL      0.078240
    106 H47         1.7480    0.8680    4.5840 hc        1 MOL      0.078240
    107 H48         1.6960    2.3960    5.5850 hc        1 MOL      0.078240
    108 H49         1.0370    0.7780    6.1280 hc        1 MOL      0.078240
    109 N10        -1.8850    2.2250    1.7460 n         1 MOL     -0.051555
    110 C35        -3.1040    2.6840    1.1260 c3        1 MOL      0.133003
    111 C36        -4.3170    1.8630    1.6150 c         1 MOL      0.303634
    112 O17        -4.2060    0.8880    2.3200 o         1 MOL     -0.433814
    113 C37        -2.8480    2.8210   -0.3890 c3        1 MOL     -0.475206
    114 C38        -3.3390    1.5640   -1.1180 c         1 MOL      0.676370
    115 N11        -2.4810    0.6390   -1.4200 n         1 MOL     -0.761971
    116 O18        -4.5260    1.2990   -1.3470 o         1 MOL     -0.549850
    117 H50        -1.4190    1.4110    1.3670 hn        1 MOL      0.077954
    118 H51        -3.3250    3.6670    1.5480 h1        1 MOL      0.046901
    119 H52        -1.8000    2.9620   -0.6450 hc        1 MOL      0.160703
    120 H53        -3.5470    3.5940   -0.7170 hc        1 MOL      0.160703
    121 H54        -1.5190    0.8080   -1.1830 hn        1 MOL      0.390987
    122 H55        -2.7160   -0.1480   -1.9950 hn        1 MOL      0.390987
    123 N12        -5.5100    2.2800    1.1760 n         1 MOL     -0.261292
    124 C39        -6.8590    1.8830    1.6330 c3        1 MOL      0.105386
    125 C40        -7.2610    0.4270    1.3050 c         1 MOL      0.321264
    126 O19        -7.8580   -0.2730    2.1370 o         1 MOL     -0.548965
    127 C41        -7.8550    2.8950    1.1320 c3        1 MOL     -0.274301
    128 C42        -7.7750    3.2220   -0.3410 ca        1 MOL      0.034878
    129 C43        -8.3430    2.4180   -1.2910 ca        1 MOL     -0.152651
    130 C44        -7.0720    4.4010   -0.7340 ca        1 MOL     -0.152651
    131 C45        -8.0940    2.6810   -2.6540 ca        1 MOL     -0.335884
    132 C46        -6.8020    4.6580   -2.0970 ca        1 MOL     -0.335884
    133 C47        -7.3420    3.8040   -3.0360 ca        1 MOL      0.461378
    134 O20        -7.1420    4.0760   -4.3410 oh        1 MOL     -0.566273
    135 H56        -5.4630    3.0720    0.5500 hn        1 MOL      0.189151
    136 H57        -6.9400    1.9480    2.7260 h1        1 MOL      0.060848
    137 H58        -7.7290    3.8280    1.6750 hc        1 MOL      0.092806
    138 H59        -8.8400    2.4880    1.3850 hc        1 MOL      0.092806
    139 H60        -8.9360    1.5420   -1.0450 ha        1 MOL      0.137295
    140 H61        -6.6730    5.0580    0.0180 ha        1 MOL      0.137295
    141 H62        -8.6670    2.1000   -3.3780 ha        1 MOL      0.168260
    142 H63        -6.0760    5.4070   -2.3620 ha        1 MOL      0.168260
    143 H64        -7.6310    3.5810   -4.9850 ho        1 MOL      0.414783
    144 N13        -6.7080   -0.0320    0.1720 n         1 MOL     -0.026855
    145 C48        -6.9490   -1.2920   -0.4490 c3        1 MOL      0.045516
    146 C49        -5.9390   -2.3510    0.0800 c         1 MOL      0.301928
    147 O21        -6.2500   -3.4680    0.4500 o         1 MOL     -0.496714
    148 C50        -7.0090   -1.0890   -1.9830 c3        1 MOL      0.092971
    149 C51        -7.5270   -2.3410   -2.6760 c3        1 MOL     -0.314328
    150 C52        -7.5120   -2.0860   -4.2010 c         1 MOL      0.711078
    151 O22        -6.4380   -2.1090   -4.8490 o         1 MOL     -0.738300
    152 O23        -8.6030   -2.0120   -4.8670 o         1 MOL     -0.738300
    153 H65        -6.2740    0.6630   -0.4170 hn        1 MOL      0.213859
    154 H66        -7.9400   -1.5800   -0.1030 h1        1 MOL      0.053530
    155 H67        -6.0420   -0.8010   -2.3750 hc        1 MOL      0.003091
    156 H68        -7.7680   -0.3130   -2.1150 hc        1 MOL      0.003091
    157 H69        -8.5590   -2.4910   -2.3620 hc        1 MOL      0.049446
    158 H70        -6.9160   -3.2180   -2.4510 hc        1 MOL      0.049446
    159 N14        -4.6250   -1.9950    0.1580 n         1 MOL     -0.078222
    160 C53        -3.6170   -2.7050    0.8820 c3        1 MOL     -0.366541
    161 C54        -3.9440   -3.0860    2.3020 c         1 MOL      0.587931
    162 O24        -3.6740   -4.1780    2.7420 o         1 MOL     -0.568403
    163 C55        -2.4190   -1.7850    0.7890 c3        1 MOL      0.095725
    164 C56        -1.2250   -2.3850    1.5830 c3        1 MOL     -0.114680
    165 C57         0.0890   -1.6390    1.1670 c         1 MOL      0.640825
    166 O25         0.3800   -0.5070    1.6500 o         1 MOL     -0.693882
    167 O26         0.8820   -2.1010    0.3260 o         1 MOL     -0.693882
    168 H71        -4.3990   -1.0410   -0.0810 hn        1 MOL      0.033682
    169 H72        -3.3950   -3.6170    0.3390 h1        1 MOL      0.218709
    170 H73        -2.6500   -0.8350    1.2770 hc        1 MOL      0.043447
    171 H74        -2.0490   -1.7050   -0.2290 hc        1 MOL      0.043447
    172 H75        -1.1920   -3.4150    1.2160 hc        1 MOL      0.019065
    173 H76        -1.4630   -2.3370    2.6440 hc        1 MOL      0.019065
    174 N15        -4.6060   -2.1730    3.0380 n         1 MOL     -0.091805
    175 C58        -4.9580   -2.3580    4.4300 c3        1 MOL     -0.397199
    176 H77        -4.1030   -2.1100    5.0580 h1        1 MOL      0.129861
    177 H78        -5.7950   -1.7080    4.6830 h1        1 MOL      0.129861
    178 H79        -5.2410   -3.3980    4.5990 h1        1 MOL      0.129861
    179 H80        -4.7870   -1.3190    2.5420 hn        1 MOL      0.180416
    180 Ca1         2.6150   -0.0560    0.1870 Ca        1 MOL      1.701402
    181 O27         3.3490    0.0110    2.7620 oh        1 MOL     -0.807284
    182 H81         2.8180   -0.5130    3.3520 ho        1 MOL      0.385012
    183 H82         4.2280   -0.0050    3.1460 ho        1 MOL      0.385012
    184 O28         5.7350   -0.1480    0.9960 oh        1 MOL     -0.807284
    185 H83         5.5610   -1.0320    0.6750 ho        1 MOL      0.385012
    186 H84         5.9060   -0.2630    1.9240 ho        1 MOL      0.385012
    187 O29         0.5760    1.0500   -1.2780 oh        1 MOL     -0.807284
    188 H85         0.7620    0.4180   -1.9730 ho        1 MOL      0.385012
    189 H86         0.9510    1.8750   -1.5900 ho        1 MOL      0.385012
@<TRIPOS>BOND
     1    1    2 1   
     2    1    4 1   
     3    1    5 1   
     4    1    6 1   
     5    2    3 2   
     6    2    7 1   
     7    7    8 1   
     8    7   15 1   
     9    8    9 1   
    10    8   11 1   
    11    8   16 1   
    12    9   10 2   
    13    9   19 1   
    14   11   12 1   
    15   11   17 1   
    16   11   18 1   
    17   12   13 1   
    18   12   14 1   
    19   19   20 1   
    20   19   27 1   
    21   20   21 1   
    22   20   23 1   
    23   20   28 1   
    24   21   22 2   
    25   21   38 1   
    26   23   24 1   
    27   23   25 1   
    28   23   29 1   
    29   24   26 1   
    30   24   30 1   
    31   24   31 1   
    32   25   32 1   
    33   25   33 1   
    34   25   34 1   
    35   26   35 1   
    36   26   36 1   
    37   26   37 1   
    38   38   39 1   
    39   38   46 1   
    40   39   40 1   
    41   39   42 1   
    42   39   47 1   
    43   40   41 2   
    44   40   50 1   
    45   42   43 1   
    46   42   48 1   
    47   42   49 1   
    48   43   44 1   
    49   43   45 1   
    50   50   51 1   
    51   50   54 1   
    52   51   52 1   
    53   51   55 1   
    54   51   56 1   
    55   52   53 2   
    56   52   57 1   
    57   57   58 1   
    58   57   65 1   
    59   58   59 1   
    60   58   61 1   
    61   58   66 1   
    62   59   60 2   
    63   59   69 1   
    64   61   62 1   
    65   61   67 1   
    66   61   68 1   
    67   62   63 1   
    68   62   64 1   
    69   69   70 1   
    70   69   73 1   
    71   70   71 1   
    72   70   74 1   
    73   70   75 1   
    74   71   72 2   
    75   71   76 1   
    76   76   77 1   
    77   76   85 1   
    78   77   78 1   
    79   77   80 1   
    80   77   86 1   
    81   78   79 2   
    82   78   93 1   
    83   80   81 1   
    84   80   87 1   
    85   80   88 1   
    86   81   82 1   
    87   81   89 1   
    88   81   90 1   
    89   82   83 1   
    90   82   84 2   
    91   83   91 1   
    92   83   92 1   
    93   93   94 1   
    94   93  100 1   
    95   94   95 1   
    96   94   97 1   
    97   94  101 1   
    98   95   96 2   
    99   95  109 1   
   100   97   98 1   
   101   97   99 1   
   102   97  102 1   
   103   98  103 1   
   104   98  104 1   
   105   98  105 1   
   106   99  106 1   
   107   99  107 1   
   108   99  108 1   
   109  109  110 1   
   110  109  117 1   
   111  110  111 1   
   112  110  113 1   
   113  110  118 1   
   114  111  112 2   
   115  111  123 1   
   116  113  114 1   
   117  113  119 1   
   118  113  120 1   
   119  114  115 1   
   120  114  116 2   
   121  115  121 1   
   122  115  122 1   
   123  123  124 1   
   124  123  135 1   
   125  124  125 1   
   126  124  127 1   
   127  124  136 1   
   128  125  126 2   
   129  125  144 1   
   130  127  128 1   
   131  127  137 1   
   132  127  138 1   
   133  128  129 ar  
   134  128  130 ar  
   135  129  131 ar  
   136  129  139 1   
   137  130  132 ar  
   138  130  140 1   
   139  131  133 ar  
   140  131  141 1   
   141  132  133 ar  
   142  132  142 1   
   143  133  134 1   
   144  134  143 1   
   145  144  145 1   
   146  144  153 1   
   147  145  146 1   
   148  145  148 1   
   149  145  154 1   
   150  146  147 2   
   151  146  159 1   
   152  148  149 1   
   153  148  155 1   
   154  148  156 1   
   155  149  150 1   
   156  149  157 1   
   157  149  158 1   
   158  150  151 1   
   159  150  152 1   
   160  159  160 1   
   161  159  168 1   
   162  160  161 1   
   163  160  163 1   
   164  160  169 1   
   165  161  162 2   
   166  161  174 1   
   167  163  164 1   
   168  163  170 1   
   169  163  171 1   
   170  164  165 1   
   171  164  172 1   
   172  164  173 1   
   173  165  166 1   
   174  165  167 1   
   175  174  175 1   
   176  174  179 1   
   177  175  176 1   
   178  175  177 1   
   179  175  178 1   
   180  181  182 1   
   181  181  183 1   
   182  184  185 1   
   183  184  186 1   
   184  187  188 1   
   185  187  189 1   
@<TRIPOS>SUBSTRUCTURE
     1 MOL         1 TEMP              0 ****  ****    0 ROOT
