@<TRIPOS>MOLECULE
MOL
  189   185     1     0     0
SMALL
resp


@<TRIPOS>ATOM
      1 C1         -0.1840    4.2310   -4.2900 c3        1 MOL     -0.437865
      2 C2          0.4910    3.5370   -3.0630 c         1 MOL      0.677765
      3 O1         -0.0580    3.7020   -1.9830 o         1 MOL     -0.616903
      4 H1         -1.2680    4.1450   -4.2050 hc        1 MOL      0.110472
      5 H2          0.0950    5.2850   -4.3100 hc        1 MOL      0.110472
      6 H3          0.1480    3.7490   -5.2090 hc        1 MOL      0.110472
      7 N1          1.6000    2.9030   -3.2180 n         1 MOL     -0.533477
      8 C3          2.3680    2.1800   -2.1970 c3        1 MOL      0.092279
      9 C4          3.2150    3.1270   -1.3130 c         1 MOL      0.472870
     10 O2          4.4480    3.0460   -1.2510 o         1 MOL     -0.484926
     11 C5          3.2040    1.0210   -2.7460 c3        1 MOL     -0.145710
     12 C6          3.7620    0.1120   -1.6010 c         1 MOL      0.681813
     13 O3          4.8070   -0.5360   -1.7290 o         1 MOL     -0.682031
     14 O4          3.2730    0.3080   -0.4540 o         1 MOL     -0.682031
     15 H4          1.9930    2.9930   -4.1510 hn        1 MOL      0.304850
     16 H5          1.6240    1.6920   -1.5850 h1        1 MOL      0.151599
     17 H6          4.0440    1.2660   -3.3970 hc        1 MOL      0.040972
     18 H7          2.4960    0.3880   -3.2660 hc        1 MOL      0.040972
     19 N2          2.5710    4.0040   -0.5540 n         1 MOL     -0.426590
     20 C7          3.2630    5.1040    0.2110 c3        1 MOL     -0.013007
     21 C8          4.2340    4.6810    1.3240 c         1 MOL      0.372710
     22 O5          5.1510    5.4690    1.6810 o         1 MOL     -0.556632
     23 C9          2.2580    6.1130    0.7960 c3        1 MOL     -0.125515
     24 C10         1.1210    6.5890   -0.0820 c3        1 MOL      0.253810
     25 C11         1.4130    7.7280   -1.0830 c3        1 MOL     -0.159732
     26 C12         0.1900    8.6660   -1.3770 c3        1 MOL     -0.068873
     27 N3         -0.9950    8.0560   -2.0560 n4        1 MOL     -0.293009
     28 H8          1.5620    3.9970   -0.4640 hn        1 MOL      0.345392
     29 H9          3.8070    5.7300   -0.5070 h1        1 MOL      0.090851
     30 H10         2.8260    6.9750    1.1240 hc        1 MOL      0.054052
     31 H11         1.7650    5.6570    1.6570 hc        1 MOL      0.054052
     32 H12         0.4210    7.0150    0.6450 hc        1 MOL     -0.053647
     33 H13         0.6060    5.7930   -0.6080 hc        1 MOL     -0.053647
     34 H14         1.8510    7.3030   -1.9910 hc        1 MOL      0.067812
     35 H15         2.2130    8.3570   -0.7030 hc        1 MOL      0.067812
     36 H16         0.4240    9.5760   -1.9260 hx        1 MOL      0.117154
     37 H17        -0.1830    9.0660   -0.4400 hx        1 MOL      0.117154
     38 H18        -1.7460    8.7190   -2.1160 hn        1 MOL      0.314606
     39 H19        -0.7570    7.7350   -2.9910 hn        1 MOL      0.314606
     40 H20        -1.2530    7.1850   -1.6170 hn        1 MOL      0.314606
     41 N4          4.0910    3.4900    1.8590 n         1 MOL     -0.094083
     42 C13         4.9630    2.9250    2.8990 c3        1 MOL     -0.079020
     43 C14         5.9460    1.8390    2.4090 c         1 MOL      0.470942
     44 O6          6.8990    1.5920    3.1420 o         1 MOL     -0.531696
     45 C15         4.1710    2.4310    4.0970 c3        1 MOL     -0.239948
     46 C16         2.9590    1.4900    3.7930 c         1 MOL      0.755638
     47 O7          2.2340    1.1920    4.7510 o         1 MOL     -0.703906
     48 O8          2.8660    1.0980    2.5820 o         1 MOL     -0.703906
     49 H21         3.2570    2.9570    1.6590 hn        1 MOL      0.184871
     50 H22         5.5970    3.7460    3.2520 h1        1 MOL      0.111347
     51 H23         3.6630    3.2300    4.6480 hc        1 MOL      0.062167
     52 H24         4.8250    1.8770    4.7640 hc        1 MOL      0.062167
     53 N5          5.7960    1.3790    1.1360 n         1 MOL     -0.012462
     54 C17         6.9150    0.7930    0.4050 c3        1 MOL     -0.232613
     55 C18         7.2530   -0.6780    0.8480 c         1 MOL      0.404829
     56 O9          8.4150   -1.1400    0.7110 o         1 MOL     -0.542666
     57 H25         5.1160    1.8110    0.5280 hn        1 MOL      0.100023
     58 H26         7.7930    1.4390    0.4720 h1        1 MOL      0.123910
     59 H27         6.7040    0.6390   -0.6520 h1        1 MOL      0.123910
     60 N6          6.2600   -1.4360    1.3500 n         1 MOL     -0.149986
     61 C19         6.3470   -2.8960    1.4750 c3        1 MOL     -0.075561
     62 C20         6.4000   -3.6950    0.1620 c         1 MOL      0.425166
     63 O10         6.8140   -4.8770    0.2300 o         1 MOL     -0.552997
     64 C21         5.1710   -3.4400    2.3400 c3        1 MOL     -0.101452
     65 C22         3.8420   -2.7610    2.0420 c         1 MOL      0.596877
     66 O11         3.1550   -2.2590    2.9770 o         1 MOL     -0.652929
     67 O12         3.4810   -2.6730    0.8330 o         1 MOL     -0.652929
     68 H28         5.3430   -1.0190    1.4310 hn        1 MOL      0.095613
     69 H29         7.2780   -3.1640    1.9710 h1        1 MOL      0.118597
     70 H30         5.3570   -3.2420    3.3990 hc        1 MOL      0.038787
     71 H31         5.0660   -4.5240    2.2660 hc        1 MOL      0.038787
     72 N7          6.1500   -3.0780   -0.9710 n         1 MOL     -0.118738
     73 C23         6.1050   -3.6930   -2.2490 c3        1 MOL     -0.256344
     74 C24         4.7130   -4.3040   -2.5570 c         1 MOL      0.600847
     75 O13         4.5940   -5.2360   -3.3570 o         1 MOL     -0.548359
     76 H32         5.7200   -2.1700   -0.9500 hn        1 MOL      0.251414
     77 H33         6.8410   -4.4930   -2.2450 h1        1 MOL      0.117295
     78 H34         6.3170   -2.9200   -2.9870 h1        1 MOL      0.117295
     79 N8          3.5960   -3.6850   -2.0300 n         1 MOL     -0.291223
     80 C25         2.2320   -4.1440   -2.2030 c3        1 MOL     -0.256363
     81 C26         1.1990   -3.0550   -2.0050 c         1 MOL      0.935096
     82 O14         1.4800   -2.0980   -1.2700 o         1 MOL     -0.705083
     83 C27         1.7620   -5.2830   -1.2340 c3        1 MOL      0.332754
     84 C28         2.2130   -6.7250   -1.5850 c3        1 MOL     -0.386914
     85 O15         2.1880   -5.0510    0.0670 oh        1 MOL     -0.557126
     86 H35         3.7070   -2.9230   -1.3840 hn        1 MOL      0.188770
     87 H36         2.1950   -4.5750   -3.2040 h1        1 MOL      0.111438
     88 H37         0.6730   -5.3680   -1.1150 h1        1 MOL      0.029737
     89 H38         2.9540   -4.4980   -0.0960 ho        1 MOL      0.380637
     90 H39         1.7790   -7.0230   -2.5420 hc        1 MOL      0.098607
     91 H40         3.2970   -6.8650   -1.6130 hc        1 MOL      0.098607
     92 H41         1.8580   -7.5080   -0.9150 hc        1 MOL      0.098607
     93 N9          0.0640   -3.1450   -2.6470 n         1 MOL     -0.807863
     94 C29        -1.0480   -2.1690   -2.5340 c3        1 MOL      0.016181
     95 C30        -2.3000   -2.8400   -2.0020 c         1 MOL      0.508266
     96 O16        -2.9010   -3.7750   -2.6070 o         1 MOL     -0.567586
     97 C31        -1.3160   -1.5370   -3.9670 c3        1 MOL      0.331820
     98 C32        -0.0780   -0.8810   -4.5780 c3        1 MOL      0.130131
     99 C33        -2.4310   -0.4980   -3.8430 c3        1 MOL     -0.567154
    100 C34        -0.2490   -0.5670   -6.1090 c3        1 MOL     -0.139343
    101 H42        -0.0860   -3.9160   -3.2770 hn        1 MOL      0.348294
    102 H43        -0.7690   -1.2870   -1.9620 h1        1 MOL      0.099678
    103 H44        -1.5570   -2.3660   -4.6230 hc        1 MOL     -0.018289
    104 H45         0.7780   -1.5520   -4.5320 hc        1 MOL     -0.034974
    105 H46         0.2530    0.0500   -4.1200 hc        1 MOL     -0.034974
    106 H47        -2.1820    0.1240   -2.9800 hc        1 MOL      0.106099
    107 H48        -2.6210    0.0470   -4.7770 hc        1 MOL      0.106099
    108 H49        -3.3420   -1.0560   -3.6370 hc        1 MOL      0.106099
    109 H50         0.6080   -0.0310   -6.4970 hc        1 MOL      0.026176
    110 H51        -0.3820   -1.5410   -6.5670 hc        1 MOL      0.026176
    111 H52        -1.1510    0.0280   -6.2700 hc        1 MOL      0.026176
    112 N10        -2.9180   -2.1950   -1.0260 n         1 MOL     -0.343437
    113 C35        -4.1550   -2.7210   -0.3400 c3        1 MOL      0.133090
    114 C36        -5.4000   -1.9560   -0.7820 c         1 MOL      0.460833
    115 O17        -5.3810   -0.9790   -1.5330 o         1 MOL     -0.391134
    116 C37        -4.0270   -2.7590    1.1110 c3        1 MOL      0.042644
    117 C38        -2.9700   -3.6010    1.8150 c3        1 MOL     -0.266700
    118 O18        -3.5160   -1.5140    1.5380 oh        1 MOL     -0.668379
    119 H53        -2.3740   -1.4070   -0.7210 hn        1 MOL      0.395920
    120 H54        -4.3800   -3.7370   -0.6650 h1        1 MOL      0.062853
    121 H55        -4.9930   -2.9560    1.5790 h1        1 MOL      0.050387
    122 H56        -2.5950   -1.7490    1.6280 ho        1 MOL      0.463349
    123 H57        -3.3260   -4.6290    1.8660 hc        1 MOL      0.080560
    124 H58        -2.0260   -3.6490    1.2660 hc        1 MOL      0.080560
    125 H59        -2.7440   -3.3430    2.8520 hc        1 MOL      0.080560
    126 N11        -6.6010   -2.3870   -0.3540 n         1 MOL     -0.437777
    127 C39        -7.9040   -1.7020   -0.4700 c3        1 MOL     -0.019601
    128 C40        -7.8660   -0.2720   -0.0220 c         1 MOL      0.228515
    129 O19        -8.2250    0.6150   -0.8290 o         1 MOL     -0.451354
    130 C41        -9.0150   -2.4530    0.2810 c3        1 MOL      0.261747
    131 C42        -9.2460   -3.8870   -0.1060 c3        1 MOL     -0.412946
    132 O20        -8.6600   -2.5220    1.6580 oh        1 MOL     -0.568899
    133 H60        -6.6500   -3.1350    0.3190 hn        1 MOL      0.293529
    134 H61        -8.2190   -1.6740   -1.5070 h1        1 MOL      0.128470
    135 H62       -10.0070   -2.0540    0.1130 h1        1 MOL      0.069924
    136 H63        -9.4830   -2.2430    2.0780 ho        1 MOL      0.376643
    137 H64        -8.4420   -4.5400    0.2440 hc        1 MOL      0.119340
    138 H65       -10.1390   -4.2410    0.4130 hc        1 MOL      0.119340
    139 H66        -9.4630   -4.0170   -1.1630 hc        1 MOL      0.119340
    140 N12        -7.3740    0.0040    1.2160 n         1 MOL     -0.157497
    141 C43        -7.0740    1.3170    1.8930 c3        1 MOL     -0.123916
    142 C44        -5.9860    2.1290    1.2160 c         1 MOL      0.379794
    143 O21        -6.0080    3.3530    1.3620 o         1 MOL     -0.530566
    144 C45        -6.7330    0.9630    3.3780 c3        1 MOL     -0.380352
    145 C46        -5.5420    0.0070    3.6180 c3        1 MOL      0.101555
    146 C47        -5.3870   -0.3060    5.1110 c3        1 MOL     -0.107792
    147 C48        -4.2380   -1.1960    5.2700 c3        1 MOL      0.257003
    148 N13        -3.6610   -1.1360    6.6690 n4        1 MOL     -0.553801
    149 H67        -7.2200   -0.7660    1.8590 hn        1 MOL      0.183440
    150 H68        -7.9610    1.9400    1.8970 h1        1 MOL      0.164674
    151 H69        -7.6720    0.6060    3.8020 hc        1 MOL      0.132685
    152 H70        -6.4540    1.9220    3.8020 hc        1 MOL      0.132685
    153 H71        -4.6610    0.6050    3.3620 hc        1 MOL      0.056022
    154 H72        -5.5520   -0.8530    2.9540 hc        1 MOL      0.056022
    155 H73        -6.2430   -0.8040    5.5620 hc        1 MOL      0.032465
    156 H74        -5.1900    0.6250    5.6450 hc        1 MOL      0.032465
    157 H75        -3.5190   -0.9030    4.5030 hx        1 MOL      0.035726
    158 H76        -4.5790   -2.2270    5.1670 hx        1 MOL      0.035726
    159 H77        -4.4030   -1.4940    7.2680 hn        1 MOL      0.373517
    160 H78        -2.8190   -1.6910    6.7470 hn        1 MOL      0.373517
    161 H79        -3.4120   -0.1960    6.9520 hn        1 MOL      0.373517
    162 N14        -5.2450    1.5770    0.2870 n         1 MOL      0.048286
    163 C49        -4.1480    2.2310   -0.4200 c3        1 MOL     -0.210263
    164 C50        -4.5440    2.7170   -1.7540 c         1 MOL      0.513273
    165 O22        -4.3300    3.8660   -2.2350 o         1 MOL     -0.583650
    166 C51        -2.8840    1.4440   -0.4560 c3        1 MOL      0.200568
    167 C52        -2.1560    1.5180    0.7840 c3        1 MOL     -0.319400
    168 C53        -0.9170    0.6910    0.6460 c         1 MOL      0.849291
    169 O23         0.2860    1.1480    0.5800 o         1 MOL     -0.872657
    170 O24        -1.0800   -0.5560    0.5490 o         1 MOL     -0.872657
    171 H80        -5.4530    0.5850    0.2080 hn        1 MOL      0.155416
    172 H81        -3.9980    3.1820    0.0850 h1        1 MOL      0.098514
    173 H82        -2.2320    1.8510   -1.2270 hc        1 MOL      0.034869
    174 H83        -3.1720    0.4370   -0.7760 hc        1 MOL      0.034869
    175 H84        -2.6710    1.1720    1.6760 hc        1 MOL      0.057007
    176 H85        -1.8780    2.5470    0.9990 hc        1 MOL      0.057007
    177 N15        -5.2490    1.8750   -2.5190 n         1 MOL     -0.243790
    178 C54        -6.1280    2.4580   -3.5840 c3        1 MOL     -0.314822
    179 H86        -7.1650    2.1890   -3.3850 h1        1 MOL      0.124239
    180 H87        -6.0280    3.5430   -3.5830 h1        1 MOL      0.124239
    181 H88        -5.8310    2.0660   -4.5560 h1        1 MOL      0.124239
    182 H89        -5.4650    0.9010   -2.3420 hn        1 MOL      0.248250
    183 Ca1         1.6430   -0.9080    1.0950 Ca        1 MOL      1.780266
    184 O25         0.6270   -3.6540    1.8770 oh        1 MOL     -0.862488
    185 H90         0.4820   -4.0980    2.7170 ho        1 MOL      0.395653
    186 H91         1.0900   -4.2950    1.3450 ho        1 MOL      0.395653
    187 O26         0.4630   -0.2700    3.4550 oh        1 MOL     -0.862488
    188 H92         1.1910    0.0650    3.9730 ho        1 MOL      0.395653
    189 H93        -0.2270    0.3960    3.5650 ho        1 MOL      0.395653
@<TRIPOS>BOND
     1    1    2 1   
     2    1    4 1   
     3    1    5 1   
     4    1    6 1   
     5    2    3 2   
     6    2    7 1   
     7    7    8 1   
     8    7   15 1   
     9    8    9 1   
    10    8   11 1   
    11    8   16 1   
    12    9   10 2   
    13    9   19 1   
    14   11   12 1   
    15   11   17 1   
    16   11   18 1   
    17   12   13 1   
    18   12   14 1   
    19   19   20 1   
    20   19   28 1   
    21   20   21 1   
    22   20   23 1   
    23   20   29 1   
    24   21   22 2   
    25   21   41 1   
    26   23   24 1   
    27   23   30 1   
    28   23   31 1   
    29   24   25 1   
    30   24   32 1   
    31   24   33 1   
    32   25   26 1   
    33   25   34 1   
    34   25   35 1   
    35   26   27 1   
    36   26   36 1   
    37   26   37 1   
    38   27   38 1   
    39   27   39 1   
    40   27   40 1   
    41   41   42 1   
    42   41   49 1   
    43   42   43 1   
    44   42   45 1   
    45   42   50 1   
    46   43   44 2   
    47   43   53 1   
    48   45   46 1   
    49   45   51 1   
    50   45   52 1   
    51   46   47 1   
    52   46   48 1   
    53   53   54 1   
    54   53   57 1   
    55   54   55 1   
    56   54   58 1   
    57   54   59 1   
    58   55   56 2   
    59   55   60 1   
    60   60   61 1   
    61   60   68 1   
    62   61   62 1   
    63   61   64 1   
    64   61   69 1   
    65   62   63 2   
    66   62   72 1   
    67   64   65 1   
    68   64   70 1   
    69   64   71 1   
    70   65   66 1   
    71   65   67 1   
    72   72   73 1   
    73   72   76 1   
    74   73   74 1   
    75   73   77 1   
    76   73   78 1   
    77   74   75 2   
    78   74   79 1   
    79   79   80 1   
    80   79   86 1   
    81   80   81 1   
    82   80   83 1   
    83   80   87 1   
    84   81   82 2   
    85   81   93 1   
    86   83   84 1   
    87   83   85 1   
    88   83   88 1   
    89   84   90 1   
    90   84   91 1   
    91   84   92 1   
    92   85   89 1   
    93   93   94 1   
    94   93  101 1   
    95   94   95 1   
    96   94   97 1   
    97   94  102 1   
    98   95   96 2   
    99   95  112 1   
   100   97   98 1   
   101   97   99 1   
   102   97  103 1   
   103   98  100 1   
   104   98  104 1   
   105   98  105 1   
   106   99  106 1   
   107   99  107 1   
   108   99  108 1   
   109  100  109 1   
   110  100  110 1   
   111  100  111 1   
   112  112  113 1   
   113  112  119 1   
   114  113  114 1   
   115  113  116 1   
   116  113  120 1   
   117  114  115 2   
   118  114  126 1   
   119  116  117 1   
   120  116  118 1   
   121  116  121 1   
   122  117  123 1   
   123  117  124 1   
   124  117  125 1   
   125  118  122 1   
   126  126  127 1   
   127  126  133 1   
   128  127  128 1   
   129  127  130 1   
   130  127  134 1   
   131  128  129 2   
   132  128  140 1   
   133  130  131 1   
   134  130  132 1   
   135  130  135 1   
   136  131  137 1   
   137  131  138 1   
   138  131  139 1   
   139  132  136 1   
   140  140  141 1   
   141  140  149 1   
   142  141  142 1   
   143  141  144 1   
   144  141  150 1   
   145  142  143 2   
   146  142  162 1   
   147  144  145 1   
   148  144  151 1   
   149  144  152 1   
   150  145  146 1   
   151  145  153 1   
   152  145  154 1   
   153  146  147 1   
   154  146  155 1   
   155  146  156 1   
   156  147  148 1   
   157  147  157 1   
   158  147  158 1   
   159  148  159 1   
   160  148  160 1   
   161  148  161 1   
   162  162  163 1   
   163  162  171 1   
   164  163  164 1   
   165  163  166 1   
   166  163  172 1   
   167  164  165 2   
   168  164  177 1   
   169  166  167 1   
   170  166  173 1   
   171  166  174 1   
   172  167  168 1   
   173  167  175 1   
   174  167  176 1   
   175  168  169 1   
   176  168  170 1   
   177  177  178 1   
   178  177  182 1   
   179  178  179 1   
   180  178  180 1   
   181  178  181 1   
   182  184  185 1   
   183  184  186 1   
   184  187  188 1   
   185  187  189 1   
@<TRIPOS>SUBSTRUCTURE
     1 MOL         1 TEMP              0 ****  ****    0 ROOT
