@<TRIPOS>MOLECULE
MOL
  189   185     1     0     0
SMALL
resp


@<TRIPOS>ATOM
      1 C1          0.7150    3.8510   -5.5350 c3        1 MOL     -0.456297
      2 C2          0.7610    3.0400   -4.2840 c         1 MOL      0.885823
      3 O1         -0.2860    2.9250   -3.6460 o         1 MOL     -0.670688
      4 H1          1.4330    4.6680   -5.4640 hc        1 MOL      0.109124
      5 H2          0.9660    3.2200   -6.3870 hc        1 MOL      0.109124
      6 H3         -0.2870    4.2590   -5.6670 hc        1 MOL      0.109124
      7 N1          1.9030    2.5880   -3.8050 n         1 MOL     -0.635177
      8 C3          2.2040    2.1950   -2.4580 c3        1 MOL      0.026252
      9 C4          2.4690    3.3800   -1.4520 c         1 MOL      0.493341
     10 O2          3.3150    4.1980   -1.7160 o         1 MOL     -0.601004
     11 C5          3.4530    1.2930   -2.5890 c3        1 MOL     -0.083045
     12 C6          3.8960    0.6850   -1.2510 c         1 MOL      0.677474
     13 O3          4.8830   -0.0720   -1.3000 o         1 MOL     -0.673947
     14 O4          3.2420    0.8420   -0.1940 o         1 MOL     -0.673947
     15 H4          2.7250    2.6910   -4.3840 hn        1 MOL      0.324027
     16 H5          1.4370    1.5640   -2.0110 h1        1 MOL     -0.034757
     17 H6          4.3120    1.7690   -3.0730 hc        1 MOL      0.048581
     18 H7          3.1390    0.5330   -3.3000 hc        1 MOL      0.048581
     19 N2          1.7250    3.5150   -0.4180 n         1 MOL     -0.066931
     20 C7          1.5750    4.6930    0.4980 c3        1 MOL      0.064236
     21 C8          2.3030    4.5270    1.8560 c         1 MOL      0.496243
     22 O5          1.9600    5.1960    2.8360 o         1 MOL     -0.528048
     23 C9          0.1410    5.0960    0.6750 c3        1 MOL     -0.282147
     24 C10        -0.6920    5.1350   -0.6170 c3        1 MOL      0.011295
     25 C11        -0.1860    6.3030   -1.4660 c3        1 MOL     -0.084595
     26 C12        -1.0650    6.3990   -2.7550 c3        1 MOL     -0.002992
     27 N3         -0.4390    7.4440   -3.6160 n4        1 MOL     -0.273172
     28 H8          1.2490    2.6970   -0.0600 hn        1 MOL      0.218681
     29 H9          2.0460    5.5110   -0.0420 h1        1 MOL      0.012566
     30 H10         0.1000    6.1020    1.0910 hc        1 MOL      0.094838
     31 H11        -0.3210    4.3450    1.3070 hc        1 MOL      0.094838
     32 H12        -1.7330    5.3290   -0.3330 hc        1 MOL      0.063283
     33 H13        -0.6060    4.2040   -1.1790 hc        1 MOL      0.063283
     34 H14         0.8200    6.1470   -1.8660 hc        1 MOL      0.056683
     35 H15        -0.1930    7.2620   -0.9540 hc        1 MOL      0.056683
     36 H16        -2.0150    6.7930   -2.4070 hx        1 MOL      0.088140
     37 H17        -1.0230    5.4620   -3.3130 hx        1 MOL      0.088140
     38 H18         0.4590    7.2180   -4.0120 hn        1 MOL      0.294834
     39 H19        -1.0150    7.6610   -4.4270 hn        1 MOL      0.294834
     40 H20        -0.3920    8.3120   -3.0960 hn        1 MOL      0.294834
     41 N4          3.2280    3.5530    1.9510 n         1 MOL     -0.202836
     42 C13         4.1610    3.4370    3.0350 c3        1 MOL     -0.137461
     43 C14         5.5070    2.6170    2.7150 c         1 MOL      0.560745
     44 O6          6.3380    2.4790    3.6430 o         1 MOL     -0.514588
     45 C15         3.5780    2.9560    4.3970 c3        1 MOL     -0.009932
     46 C16         2.8190    1.6730    4.3000 c         1 MOL      0.655058
     47 O7          2.4570    1.0990    5.3900 o         1 MOL     -0.617179
     48 O8          2.6150    1.0380    3.2710 o         1 MOL     -0.617179
     49 H21         3.3020    2.9760    1.1240 hn        1 MOL     -0.051014
     50 H22         4.4600    4.4560    3.2680 h1        1 MOL      0.086663
     51 H23         2.9640    3.6940    4.9130 hc        1 MOL      0.032916
     52 H24         4.4380    2.7480    5.0360 hc        1 MOL      0.032916
     53 N5          5.7700    2.2060    1.4910 n         1 MOL     -0.495804
     54 C17         7.1020    1.8310    0.9760 c3        1 MOL      0.001861
     55 C18         7.5880    0.4720    1.3720 c         1 MOL      0.379601
     56 O9          8.7820    0.1110    1.3330 o         1 MOL     -0.547516
     57 H25         5.0270    2.4080    0.8380 hn        1 MOL      0.382629
     58 H26         7.8620    2.5970    1.1150 h1        1 MOL      0.086004
     59 H27         7.1060    1.8800   -0.1140 h1        1 MOL      0.086004
     60 N6          6.6520   -0.3930    1.7040 n         1 MOL     -0.117466
     61 C19         6.8830   -1.8630    1.9820 c3        1 MOL     -0.021935
     62 C20         7.1520   -2.6750    0.7290 c         1 MOL      0.414844
     63 O10         7.9960   -3.6180    0.7210 o         1 MOL     -0.548680
     64 C21         5.7810   -2.4270    2.9060 c3        1 MOL     -0.271654
     65 C22         4.3460   -2.1490    2.3550 c         1 MOL      0.731731
     66 O11         4.1140   -1.9330    1.1490 o         1 MOL     -0.705180
     67 O12         3.4310   -2.1470    3.1630 o         1 MOL     -0.705180
     68 H28         5.6820   -0.1520    1.6040 hn        1 MOL      0.138276
     69 H29         7.7430   -1.9990    2.6420 h1        1 MOL      0.106476
     70 H30         5.9400   -1.9760    3.8870 hc        1 MOL      0.095231
     71 H31         6.0070   -3.4960    2.9810 hc        1 MOL      0.095231
     72 N7          6.6120   -2.1810   -0.4200 n         1 MOL     -0.096381
     73 C23         6.7100   -2.7460   -1.6780 c3        1 MOL     -0.115967
     74 C24         5.4400   -3.5200   -2.0720 c         1 MOL      0.506309
     75 O13         5.5090   -4.3250   -2.9490 o         1 MOL     -0.572329
     76 H32         5.9800   -1.4080   -0.2910 hn        1 MOL      0.168096
     77 H33         7.5340   -3.4450   -1.7910 h1        1 MOL      0.075458
     78 H34         6.8240   -1.9280   -2.4010 h1        1 MOL      0.075458
     79 N8          4.2890   -3.1640   -1.5310 n         1 MOL     -0.067579
     80 C25         3.0320   -3.9100   -1.7210 c3        1 MOL     -0.195037
     81 C26         1.8290   -2.9610   -1.5730 c         1 MOL      0.474363
     82 O14         1.9330   -1.8620   -0.9840 o         1 MOL     -0.484169
     83 C27         2.8930   -5.1170   -0.8490 c3        1 MOL      0.403525
     84 C28         3.7380   -6.3230   -1.3320 c3        1 MOL     -0.447965
     85 O15         3.2100   -4.7980    0.4990 oh        1 MOL     -0.580804
     86 H35         4.3830   -2.4140   -0.8720 hn        1 MOL      0.037852
     87 H36         2.9140   -4.2030   -2.7680 h1        1 MOL      0.103314
     88 H37         1.8480   -5.4480   -0.8070 h1        1 MOL      0.006836
     89 H38         3.8200   -4.0680    0.4140 ho        1 MOL      0.351050
     90 H39         3.7340   -6.4510   -2.4130 hc        1 MOL      0.120558
     91 H40         4.7680   -6.1930   -1.0020 hc        1 MOL      0.120558
     92 H41         3.5270   -7.2960   -0.8850 hc        1 MOL      0.120558
     93 N9          0.7410   -3.4380   -2.1630 n         1 MOL     -0.534545
     94 C29        -0.4820   -2.6760   -2.1690 c3        1 MOL      0.133127
     95 C30        -1.5520   -3.4800   -1.5030 c         1 MOL      0.527992
     96 O16        -1.8580   -4.5500   -1.9590 o         1 MOL     -0.545245
     97 C31        -0.7660   -2.0960   -3.5640 c3        1 MOL      0.040667
     98 C32         0.0780   -0.8670   -3.8090 c3        1 MOL     -0.016599
     99 C33        -2.2810   -1.7480   -3.9150 c3        1 MOL     -0.274750
    100 C34         0.0560   -0.4650   -5.2980 c3        1 MOL     -0.189950
    101 H42         0.7500   -4.2590   -2.7360 hn        1 MOL      0.318660
    102 H43        -0.3580   -1.8300   -1.4960 h1        1 MOL      0.036396
    103 H44        -0.4540   -2.8850   -4.2450 hc        1 MOL      0.023796
    104 H45         1.1340   -1.0250   -3.5960 hc        1 MOL      0.076784
    105 H46        -0.2780   -0.0840   -3.1340 hc        1 MOL      0.076784
    106 H47        -2.5940   -0.8230   -3.4260 hc        1 MOL      0.059057
    107 H48        -2.4560   -1.6200   -4.9810 hc        1 MOL      0.059057
    108 H49        -2.8530   -2.5980   -3.5610 hc        1 MOL      0.059057
    109 H50         0.7180    0.3790   -5.4770 hc        1 MOL      0.048097
    110 H51         0.5020   -1.1370   -6.0410 hc        1 MOL      0.048097
    111 H52        -0.9610   -0.1800   -5.5560 hc        1 MOL      0.048097
    112 N10        -2.1540   -2.9090   -0.4290 n         1 MOL     -0.277135
    113 C35        -3.4080   -3.2130    0.3110 c3        1 MOL      0.011407
    114 C36        -4.6310   -2.6320   -0.3310 c         1 MOL      0.469726
    115 O17        -4.4490   -1.8400   -1.2160 o         1 MOL     -0.351404
    116 C37        -3.3670   -2.7550    1.7600 c3        1 MOL      0.041722
    117 C38        -2.1700   -3.4190    2.5400 c3        1 MOL     -0.350005
    118 O18        -3.2800   -1.3730    1.8010 oh        1 MOL     -0.416270
    119 H53        -1.7370   -2.0730   -0.0370 hn        1 MOL      0.202009
    120 H54        -3.5480   -4.2880    0.3940 h1        1 MOL      0.068436
    121 H55        -4.2690   -3.0920    2.2780 h1        1 MOL      0.022121
    122 H56        -3.4340   -1.1220    2.7180 ho        1 MOL      0.340623
    123 H57        -1.2040   -3.1610    2.1330 hc        1 MOL      0.108372
    124 H58        -2.2580   -3.2810    3.6190 hc        1 MOL      0.108372
    125 H59        -2.3070   -4.4970    2.4520 hc        1 MOL      0.108372
    126 N11        -5.8680   -3.0000    0.0670 n         1 MOL     -0.490351
    127 C39        -7.0250   -2.3360   -0.5450 c3        1 MOL     -0.030720
    128 C40        -7.2430   -0.8460   -0.2060 c         1 MOL      0.212521
    129 O19        -8.1160   -0.2520   -0.8880 o         1 MOL     -0.467065
    130 C41        -8.3350   -3.1130   -0.3690 c3        1 MOL      0.343196
    131 C42        -8.1540   -4.5780   -0.7640 c3        1 MOL     -0.542452
    132 O20        -8.8370   -3.2620    0.9840 oh        1 MOL     -0.614250
    133 H60        -5.9510   -3.7420    0.7540 hn        1 MOL      0.319778
    134 H61        -6.8480   -2.3040   -1.6210 h1        1 MOL      0.149778
    135 H62        -9.1160   -2.6080   -0.9370 h1        1 MOL      0.040130
    136 H63        -9.7450   -2.9420    1.0140 ho        1 MOL      0.397068
    137 H64        -7.5610   -5.0420    0.0190 hc        1 MOL      0.150331
    138 H65        -9.0520   -5.1910   -0.7000 hc        1 MOL      0.150331
    139 H66        -7.6440   -4.7350   -1.7110 hc        1 MOL      0.150331
    140 N12        -6.6020   -0.3040    0.8250 n         1 MOL     -0.123378
    141 C43        -6.6790    1.1230    1.0740 c3        1 MOL      0.007681
    142 C44        -5.8160    1.9050    0.0960 c         1 MOL      0.327746
    143 O21        -6.2350    3.0080   -0.2500 o         1 MOL     -0.499498
    144 C45        -6.3910    1.2640    2.5800 c3        1 MOL     -0.107130
    145 C46        -7.6870    0.8330    3.3950 c3        1 MOL      0.215651
    146 C47        -7.3760    0.8300    4.9140 c3        1 MOL     -0.233368
    147 C48        -8.7630    1.0590    5.5430 c3        1 MOL      0.147359
    148 N13        -8.8470    0.7270    6.9660 n4        1 MOL     -0.207270
    149 H67        -6.0750   -0.9070    1.4480 hn        1 MOL      0.225789
    150 H68        -7.7000    1.4490    0.8660 h1        1 MOL      0.111425
    151 H69        -6.2430    2.3110    2.8220 hc        1 MOL      0.046056
    152 H70        -5.5490    0.6540    2.9250 hc        1 MOL      0.046056
    153 H71        -7.9560   -0.1820    3.1050 hc        1 MOL     -0.051126
    154 H72        -8.4920    1.5230    3.1260 hc        1 MOL     -0.051126
    155 H73        -6.7760    1.7180    5.1200 hc        1 MOL      0.077584
    156 H74        -6.9300   -0.1030    5.2530 hc        1 MOL      0.077584
    157 H75        -9.4960    0.3730    5.1050 hx        1 MOL      0.045805
    158 H76        -9.0520    2.1000    5.3980 hx        1 MOL      0.045805
    159 H77        -9.0230   -0.2720    7.0330 hn        1 MOL      0.219378
    160 H78        -7.9490    0.8630    7.4080 hn        1 MOL      0.219378
    161 H79        -9.5770    1.3100    7.3340 hn        1 MOL      0.219378
    162 N14        -4.7600    1.3050   -0.4280 n         1 MOL     -0.071293
    163 C49        -3.8590    1.8660   -1.4410 c3        1 MOL     -0.075090
    164 C50        -4.4550    1.6420   -2.8500 c         1 MOL      0.533457
    165 O22        -4.4570    2.6150   -3.5900 o         1 MOL     -0.557948
    166 C51        -2.5050    1.2300   -1.2450 c3        1 MOL      0.012405
    167 C52        -1.9270    1.4910    0.1610 c3        1 MOL      0.019650
    168 C53        -0.5750    0.8110    0.4180 c         1 MOL      0.638175
    169 O23        -0.4980   -0.4160    0.4110 o         1 MOL     -0.693410
    170 O24         0.3520    1.4430    0.8640 o         1 MOL     -0.693410
    171 H80        -4.5590    0.3980   -0.0240 hn        1 MOL      0.127685
    172 H81        -3.7330    2.9500   -1.4050 h1        1 MOL      0.052950
    173 H82        -1.8450    1.5440   -2.0500 hc        1 MOL      0.057664
    174 H83        -2.6430    0.1640   -1.3740 hc        1 MOL      0.057664
    175 H84        -2.6560    1.2020    0.9160 hc        1 MOL     -0.057709
    176 H85        -1.8210    2.5850    0.1340 hc        1 MOL     -0.057709
    177 N15        -5.1040    0.5010   -3.1640 n         1 MOL     -0.213816
    178 C54        -5.4340   -0.0140   -4.5130 c3        1 MOL     -0.237409
    179 H86        -6.2970   -0.6760   -4.4490 h1        1 MOL      0.108340
    180 H87        -5.6660    0.8200   -5.1740 h1        1 MOL      0.108340
    181 H88        -4.5810   -0.5660   -4.9110 h1        1 MOL      0.108340
    182 H89        -5.1710   -0.1650   -2.4140 hn        1 MOL      0.135391
    183 Ca1         1.9260   -0.5770    1.3990 Ca        1 MOL      1.719345
    184 O25         1.2790   -3.2580    1.5330 oh        1 MOL     -0.803104
    185 H90         1.0680   -3.6800    2.3730 ho        1 MOL      0.397717
    186 H91         1.9480   -3.8100    1.1460 ho        1 MOL      0.397717
    187 O26        -0.3600   -1.1160    3.2030 oh        1 MOL     -0.803104
    188 H92        -0.8080   -1.3010    4.0280 ho        1 MOL      0.397717
    189 H93        -1.0590   -1.0980    2.5560 ho        1 MOL      0.397717
@<TRIPOS>BOND
     1    1    2 1   
     2    1    4 1   
     3    1    5 1   
     4    1    6 1   
     5    2    3 2   
     6    2    7 1   
     7    7    8 1   
     8    7   15 1   
     9    8    9 1   
    10    8   11 1   
    11    8   16 1   
    12    9   10 2   
    13    9   19 1   
    14   11   12 1   
    15   11   17 1   
    16   11   18 1   
    17   12   13 1   
    18   12   14 1   
    19   19   20 1   
    20   19   28 1   
    21   20   21 1   
    22   20   23 1   
    23   20   29 1   
    24   21   22 2   
    25   21   41 1   
    26   23   24 1   
    27   23   30 1   
    28   23   31 1   
    29   24   25 1   
    30   24   32 1   
    31   24   33 1   
    32   25   26 1   
    33   25   34 1   
    34   25   35 1   
    35   26   27 1   
    36   26   36 1   
    37   26   37 1   
    38   27   38 1   
    39   27   39 1   
    40   27   40 1   
    41   41   42 1   
    42   41   49 1   
    43   42   43 1   
    44   42   45 1   
    45   42   50 1   
    46   43   44 2   
    47   43   53 1   
    48   45   46 1   
    49   45   51 1   
    50   45   52 1   
    51   46   47 1   
    52   46   48 1   
    53   53   54 1   
    54   53   57 1   
    55   54   55 1   
    56   54   58 1   
    57   54   59 1   
    58   55   56 2   
    59   55   60 1   
    60   60   61 1   
    61   60   68 1   
    62   61   62 1   
    63   61   64 1   
    64   61   69 1   
    65   62   63 2   
    66   62   72 1   
    67   64   65 1   
    68   64   70 1   
    69   64   71 1   
    70   65   66 1   
    71   65   67 1   
    72   72   73 1   
    73   72   76 1   
    74   73   74 1   
    75   73   77 1   
    76   73   78 1   
    77   74   75 2   
    78   74   79 1   
    79   79   80 1   
    80   79   86 1   
    81   80   81 1   
    82   80   83 1   
    83   80   87 1   
    84   81   82 2   
    85   81   93 1   
    86   83   84 1   
    87   83   85 1   
    88   83   88 1   
    89   84   90 1   
    90   84   91 1   
    91   84   92 1   
    92   85   89 1   
    93   93   94 1   
    94   93  101 1   
    95   94   95 1   
    96   94   97 1   
    97   94  102 1   
    98   95   96 2   
    99   95  112 1   
   100   97   98 1   
   101   97   99 1   
   102   97  103 1   
   103   98  100 1   
   104   98  104 1   
   105   98  105 1   
   106   99  106 1   
   107   99  107 1   
   108   99  108 1   
   109  100  109 1   
   110  100  110 1   
   111  100  111 1   
   112  112  113 1   
   113  112  119 1   
   114  113  114 1   
   115  113  116 1   
   116  113  120 1   
   117  114  115 2   
   118  114  126 1   
   119  116  117 1   
   120  116  118 1   
   121  116  121 1   
   122  117  123 1   
   123  117  124 1   
   124  117  125 1   
   125  118  122 1   
   126  126  127 1   
   127  126  133 1   
   128  127  128 1   
   129  127  130 1   
   130  127  134 1   
   131  128  129 2   
   132  128  140 1   
   133  130  131 1   
   134  130  132 1   
   135  130  135 1   
   136  131  137 1   
   137  131  138 1   
   138  131  139 1   
   139  132  136 1   
   140  140  141 1   
   141  140  149 1   
   142  141  142 1   
   143  141  144 1   
   144  141  150 1   
   145  142  143 2   
   146  142  162 1   
   147  144  145 1   
   148  144  151 1   
   149  144  152 1   
   150  145  146 1   
   151  145  153 1   
   152  145  154 1   
   153  146  147 1   
   154  146  155 1   
   155  146  156 1   
   156  147  148 1   
   157  147  157 1   
   158  147  158 1   
   159  148  159 1   
   160  148  160 1   
   161  148  161 1   
   162  162  163 1   
   163  162  171 1   
   164  163  164 1   
   165  163  166 1   
   166  163  172 1   
   167  164  165 2   
   168  164  177 1   
   169  166  167 1   
   170  166  173 1   
   171  166  174 1   
   172  167  168 1   
   173  167  175 1   
   174  167  176 1   
   175  168  169 1   
   176  168  170 1   
   177  177  178 1   
   178  177  182 1   
   179  178  179 1   
   180  178  180 1   
   181  178  181 1   
   182  184  185 1   
   183  184  186 1   
   184  187  188 1   
   185  187  189 1   
@<TRIPOS>SUBSTRUCTURE
     1 MOL         1 TEMP              0 ****  ****    0 ROOT
