@<TRIPOS>MOLECULE
MOL
  172   171     1     0     0
SMALL
resp


@<TRIPOS>ATOM
      1 C1         -0.1480   -2.7140    5.8730 c3        1 MOL     -0.382491
      2 C2          0.4660   -2.7220    4.4710 c         1 MOL      0.631677
      3 O1         -0.1810   -3.2370    3.5300 o         1 MOL     -0.581331
      4 H1         -1.2010   -2.4390    5.8070 hc        1 MOL      0.101975
      5 H2         -0.0610   -3.7070    6.3150 hc        1 MOL      0.101975
      6 H3          0.3770   -1.9910    6.4970 hc        1 MOL      0.101975
      7 N1          1.6310   -2.0520    4.1670 n         1 MOL     -0.505207
      8 C3          2.2080   -1.8740    2.8510 c3        1 MOL      0.154993
      9 C4          2.7740   -3.1230    2.2570 c         1 MOL      0.390778
     10 O2          3.9320   -3.4170    2.5780 o         1 MOL     -0.523908
     11 C5          3.2220   -0.7320    3.0100 c3        1 MOL     -0.282952
     12 C6          3.8520   -0.2390    1.6910 c         1 MOL      0.612129
     13 O3          3.4820   -0.6630    0.5940 o         1 MOL     -0.602488
     14 O4          4.8320    0.4970    1.8370 o         1 MOL     -0.602488
     15 H4          2.0870   -1.5590    4.9280 hn        1 MOL      0.277937
     16 H5          1.3790   -1.5560    2.2140 h1        1 MOL      0.061562
     17 H6          4.0700   -1.0400    3.6280 hc        1 MOL      0.085019
     18 H7          2.7020    0.0990    3.4840 hc        1 MOL      0.085019
     19 N2          2.0900   -3.7360    1.2820 n         1 MOL     -0.196741
     20 C7          2.1260   -5.1170    0.8990 c3        1 MOL      0.016219
     21 C8          3.1620   -5.3770   -0.2920 c         1 MOL      0.439463
     22 O5          3.6450   -6.5050   -0.4850 o         1 MOL     -0.582652
     23 C9          0.6940   -5.4570    0.4990 c3        1 MOL     -0.323947
     24 H8          1.2600   -3.2360    0.9980 hn        1 MOL      0.393137
     25 H9          2.5110   -5.6470    1.7620 h1        1 MOL      0.069750
     26 H10        -0.0580   -5.2220    1.2510 hc        1 MOL      0.086791
     27 H11         0.4290   -4.8380   -0.3580 hc        1 MOL      0.086791
     28 H12         0.6600   -6.5170    0.2580 hc        1 MOL      0.086791
     29 N3          3.5490   -4.3710   -1.0800 n         1 MOL     -0.115410
     30 C10         4.6330   -4.3780   -1.9810 c3        1 MOL     -0.000720
     31 C11         5.8190   -3.6780   -1.3940 c         1 MOL      0.378909
     32 O6          6.9100   -3.7230   -1.9260 o         1 MOL     -0.537059
     33 C12         4.2290   -3.8050   -3.3270 c3        1 MOL     -0.096359
     34 C13         3.4470   -2.4540   -3.2800 c         1 MOL      0.716548
     35 O7          3.0700   -1.8800   -2.2600 o         1 MOL     -0.731168
     36 O8          3.2890   -1.9010   -4.4120 o         1 MOL     -0.731168
     37 H13         3.1560   -3.4690   -0.8440 hn        1 MOL      0.115549
     38 H14         4.9570   -5.4040   -2.1750 h1        1 MOL      0.078454
     39 H15         3.5520   -4.5650   -3.7120 hc        1 MOL      0.019256
     40 H16         5.0460   -3.6320   -4.0240 hc        1 MOL      0.019256
     41 N4          5.6520   -3.0140   -0.2580 n         1 MOL      0.142872
     42 C14         6.6790   -2.4030    0.6130 c3        1 MOL     -0.213804
     43 C15         7.4100   -1.1900   -0.0570 c         1 MOL      0.495271
     44 O9          8.6280   -1.3160   -0.3230 o         1 MOL     -0.548937
     45 H17         4.7020   -2.8930    0.0500 hn        1 MOL     -0.155170
     46 H18         7.5180   -3.0970    0.7570 h1        1 MOL      0.100502
     47 H19         6.3010   -2.0480    1.5760 h1        1 MOL      0.100502
     48 N5          6.6240   -0.1550   -0.4550 n         1 MOL     -0.259762
     49 C16         7.0720    1.0770   -1.1450 c3        1 MOL      0.055626
     50 C17         7.0880    2.4380   -0.3820 c         1 MOL      0.425513
     51 O10         7.8140    3.3140   -0.7890 o         1 MOL     -0.543198
     52 C18         6.4900    1.1540   -2.5440 c3        1 MOL     -0.257397
     53 C19         5.0140    1.5230   -2.5730 c         1 MOL      0.482865
     54 N6          4.6150    2.2430   -3.5880 n         1 MOL     -0.614939
     55 O11         4.1890    1.3550   -1.6810 o         1 MOL     -0.448709
     56 H20         5.6680   -0.2440   -0.1620 hn        1 MOL      0.144786
     57 H21         8.1440    0.8850   -1.2400 h1        1 MOL      0.073521
     58 H22         6.4420    0.1380   -2.9350 hc        1 MOL      0.115886
     59 H23         7.0900    1.7220   -3.2520 hc        1 MOL      0.115886
     60 H24         5.3580    2.2690   -4.2740 hn        1 MOL      0.303665
     61 H25         3.6280    2.2150   -3.7720 hn        1 MOL      0.303665
     62 N7          6.3110    2.6230    0.7030 n         1 MOL     -0.145693
     63 C20         6.2290    3.7520    1.6450 c3        1 MOL     -0.218522
     64 C21         4.9060    4.4220    1.6530 c         1 MOL      0.547045
     65 O12         4.6890    5.4770    2.2870 o         1 MOL     -0.627579
     66 H26         5.7830    1.8360    1.0350 hn        1 MOL      0.139757
     67 H27         7.0370    4.4530    1.4760 h1        1 MOL      0.113778
     68 H28         6.1970    3.3500    2.6530 h1        1 MOL      0.113778
     69 N8          3.9780    3.9100    0.9390 n         1 MOL     -0.116221
     70 C22         2.6050    4.5190    0.7510 c3        1 MOL     -0.174685
     71 C23         1.5210    3.4880    0.7680 c         1 MOL      0.532321
     72 O13         1.7790    2.3370    0.4230 o         1 MOL     -0.487766
     73 C24         2.4520    5.4220   -0.5010 c3        1 MOL      0.426462
     74 C25         2.9540    6.8610   -0.2190 c3        1 MOL     -0.520240
     75 O14         2.9980    4.8300   -1.6880 oh        1 MOL     -0.651165
     76 H29         4.1360    2.9980    0.5290 hn        1 MOL      0.116872
     77 H30         2.4590    5.1970    1.5960 h1        1 MOL      0.101582
     78 H31         1.3790    5.4570   -0.6850 h1        1 MOL      0.030042
     79 H32         3.9170    5.0190   -1.8840 ho        1 MOL      0.405435
     80 H33         4.0290    6.7670   -0.0610 hc        1 MOL      0.135665
     81 H34         2.8140    7.4370   -1.1310 hc        1 MOL      0.135665
     82 H35         2.5290    7.2540    0.7060 hc        1 MOL      0.135665
     83 N9          0.2730    3.8570    1.1230 n         1 MOL     -0.469591
     84 C26        -0.8260    2.8900    1.2420 c3        1 MOL      0.047484
     85 C27        -1.7610    2.9300   -0.0190 c         1 MOL      0.610860
     86 O15        -2.2320    3.9840   -0.3270 o         1 MOL     -0.616847
     87 C28        -1.6450    3.1620    2.5810 c3        1 MOL     -0.008530
     88 C29        -0.7660    3.0070    3.8150 c3        1 MOL      0.112549
     89 C30        -2.9270    2.2970    2.7590 c3        1 MOL      0.016535
     90 C31        -1.3190    3.4270    5.2060 c3        1 MOL     -0.149403
     91 H36         0.1300    4.8260    1.3550 hn        1 MOL      0.274917
     92 H37        -0.4720    1.8610    1.3600 h1        1 MOL      0.081143
     93 H38        -1.9630    4.1970    2.4700 hc        1 MOL     -0.006346
     94 H39         0.1660    3.5690    3.7420 hc        1 MOL     -0.017809
     95 H40        -0.3860    1.9870    3.8680 hc        1 MOL     -0.017809
     96 H41        -2.5530    1.3060    3.0110 hc        1 MOL     -0.008621
     97 H42        -3.5110    2.6820    3.5930 hc        1 MOL     -0.008621
     98 H43        -3.6290    2.4280    1.9330 hc        1 MOL     -0.008621
     99 H44        -2.1650    2.8070    5.5060 hc        1 MOL      0.025093
    100 H45        -0.5740    3.2400    5.9840 hc        1 MOL      0.025093
    101 H46        -1.5580    4.4910    5.2620 hc        1 MOL      0.025093
    102 N10        -1.9860    1.8530   -0.7130 n         1 MOL     -0.295241
    103 C32        -2.9060    1.6580   -1.8230 c3        1 MOL      0.067810
    104 C33        -4.2700    1.2400   -1.2730 c         1 MOL      0.388237
    105 O16        -4.4400    0.7310   -0.1280 o         1 MOL     -0.275450
    106 C34        -2.3380    0.7200   -2.8730 c3        1 MOL     -0.138949
    107 C35        -0.9520    0.9770   -3.3010 c         1 MOL      0.755064
    108 O17         0.0210    0.3020   -2.8450 o         1 MOL     -0.711574
    109 O18        -0.7480    1.8870   -4.1600 o         1 MOL     -0.711574
    110 H47        -1.5410    0.9860   -0.4770 hn        1 MOL      0.091400
    111 H48        -3.0720    2.5260   -2.4470 h1        1 MOL      0.067023
    112 H49        -3.0230    0.6440   -3.7210 hc        1 MOL      0.030244
    113 H50        -2.3810   -0.2490   -2.3910 hc        1 MOL      0.030244
    114 N11        -5.4000    1.4430   -1.9820 n         1 MOL     -0.663669
    115 C36        -6.7820    1.1560   -1.4280 c3        1 MOL      0.456038
    116 C37        -6.9490   -0.2610   -0.8040 c         1 MOL      0.203826
    117 O19        -7.6360   -0.3480    0.2030 o         1 MOL     -0.449035
    118 C38        -7.8270    1.4270   -2.4730 c3        1 MOL     -0.329531
    119 C39        -9.1930    1.2310   -1.9320 ca        1 MOL      0.273934
    120 C40        -9.6000    2.1550   -0.9080 ca        1 MOL     -0.340330
    121 C41       -10.0190    0.1610   -2.3010 ca        1 MOL     -0.340330
    122 C42       -10.7940    1.8930   -0.2390 ca        1 MOL      0.041355
    123 C43       -11.2200   -0.0360   -1.6180 ca        1 MOL      0.041355
    124 C44       -11.6320    0.8330   -0.6140 ca        1 MOL     -0.243376
    125 H51        -5.3590    1.7610   -2.9470 hn        1 MOL      0.332556
    126 H52        -6.9540    1.8880   -0.6440 h1        1 MOL      0.041766
    127 H53        -7.6690    0.7440   -3.3000 hc        1 MOL      0.080303
    128 H54        -7.7760    2.4720   -2.7950 hc        1 MOL      0.080303
    129 H55        -8.9850    2.9670   -0.5390 ha        1 MOL      0.163962
    130 H56        -9.6080   -0.5870   -2.9610 ha        1 MOL      0.163962
    131 H57       -10.9830    2.5610    0.5920 ha        1 MOL      0.078554
    132 H58       -11.9220   -0.7890   -1.9290 ha        1 MOL      0.078554
    133 H59       -12.5320    0.7020   -0.0330 ha        1 MOL      0.124593
    134 N12        -6.4300   -1.3630   -1.3720 n         1 MOL      0.042572
    135 C45        -6.5790   -2.6080   -0.6650 c3        1 MOL      0.089032
    136 C46        -5.7850   -2.5910    0.6740 c         1 MOL      0.224665
    137 O20        -6.2460   -3.1130    1.6800 o         1 MOL     -0.481226
    138 C47        -6.1170   -3.7220   -1.6130 c3        1 MOL      0.045017
    139 C48        -6.1930   -3.1450   -3.0120 c3        1 MOL     -0.160468
    140 C49        -5.9490   -1.6320   -2.7180 c3        1 MOL     -0.095661
    141 H60        -7.6380   -2.7640   -0.4660 h1        1 MOL      0.033915
    142 H61        -5.0760   -3.9380   -1.3500 hc        1 MOL      0.014206
    143 H62        -6.7550   -4.5950   -1.4860 hc        1 MOL      0.014206
    144 H63        -5.3720   -3.5390   -3.6150 hc        1 MOL      0.061391
    145 H64        -7.1870   -3.2900   -3.4400 hc        1 MOL      0.061391
    146 H65        -4.8660   -1.4810   -2.7070 h1        1 MOL      0.057953
    147 H66        -6.3620   -0.9450   -3.4560 h1        1 MOL      0.057953
    148 N13        -4.6010   -1.8850    0.7330 n         1 MOL     -0.040660
    149 C50        -3.7600   -1.8210    1.9100 c3        1 MOL     -0.256723
    150 C51        -4.4210   -0.9370    2.9480 c         1 MOL      0.451985
    151 O21        -4.2690   -1.2300    4.1710 o         1 MOL     -0.586254
    152 C52        -2.3630   -1.3060    1.6000 c3        1 MOL      0.075348
    153 C53        -1.7300   -1.9350    0.3760 c3        1 MOL     -0.370536
    154 C54        -0.4630   -1.3250    0.0150 c         1 MOL      0.823149
    155 O22        -0.3570   -0.0940    0.0100 o         1 MOL     -0.788028
    156 O23         0.5730   -2.0070   -0.2420 o         1 MOL     -0.788028
    157 H67        -4.3530   -1.4110   -0.1180 hn        1 MOL      0.155368
    158 H68        -3.8070   -2.8110    2.3470 h1        1 MOL      0.161481
    159 H69        -1.6540   -1.3810    2.4300 hc        1 MOL      0.073971
    160 H70        -2.4080   -0.2410    1.3950 hc        1 MOL      0.073971
    161 H71        -2.4860   -1.7620   -0.3880 hc        1 MOL      0.084846
    162 H72        -1.6290   -2.9900    0.6520 hc        1 MOL      0.084846
    163 N14        -5.1750    0.0510    2.5370 n         1 MOL      0.110920
    164 C55        -6.0910    0.7850    3.4050 c3        1 MOL     -0.192042
    165 H73        -6.8730    0.1130    3.7580 h1        1 MOL      0.063263
    166 H74        -5.5420    1.1840    4.2580 h1        1 MOL      0.063263
    167 H75        -6.5420    1.6050    2.8470 h1        1 MOL      0.063263
    168 H76        -5.2210    0.3020    1.5580 hn        1 MOL     -0.025869
    169 Ca1         1.8930    0.0970   -1.2600 Ca        1 MOL      1.679808
    170 O24         1.8610    2.3880   -2.7930 oh        1 MOL     -0.788002
    171 H77         1.9430    3.2970   -2.5350 ho        1 MOL      0.390208
    172 H78         1.2060    2.3910   -3.4870 ho        1 MOL      0.390208
@<TRIPOS>BOND
     1    1    2 1   
     2    1    4 1   
     3    1    5 1   
     4    1    6 1   
     5    2    3 2   
     6    2    7 1   
     7    7    8 1   
     8    7   15 1   
     9    8    9 1   
    10    8   11 1   
    11    8   16 1   
    12    9   10 2   
    13    9   19 1   
    14   11   12 1   
    15   11   17 1   
    16   11   18 1   
    17   12   13 1   
    18   12   14 1   
    19   19   20 1   
    20   19   24 1   
    21   20   21 1   
    22   20   23 1   
    23   20   25 1   
    24   21   22 2   
    25   21   29 1   
    26   23   26 1   
    27   23   27 1   
    28   23   28 1   
    29   29   30 1   
    30   29   37 1   
    31   30   31 1   
    32   30   33 1   
    33   30   38 1   
    34   31   32 2   
    35   31   41 1   
    36   33   34 1   
    37   33   39 1   
    38   33   40 1   
    39   34   35 1   
    40   34   36 1   
    41   41   42 1   
    42   41   45 1   
    43   42   43 1   
    44   42   46 1   
    45   42   47 1   
    46   43   44 2   
    47   43   48 1   
    48   48   49 1   
    49   48   56 1   
    50   49   50 1   
    51   49   52 1   
    52   49   57 1   
    53   50   51 2   
    54   50   62 1   
    55   52   53 1   
    56   52   58 1   
    57   52   59 1   
    58   53   54 1   
    59   53   55 2   
    60   54   60 1   
    61   54   61 1   
    62   62   63 1   
    63   62   66 1   
    64   63   64 1   
    65   63   67 1   
    66   63   68 1   
    67   64   65 2   
    68   64   69 1   
    69   69   70 1   
    70   69   76 1   
    71   70   71 1   
    72   70   73 1   
    73   70   77 1   
    74   71   72 2   
    75   71   83 1   
    76   73   74 1   
    77   73   75 1   
    78   73   78 1   
    79   74   80 1   
    80   74   81 1   
    81   74   82 1   
    82   75   79 1   
    83   83   84 1   
    84   83   91 1   
    85   84   85 1   
    86   84   87 1   
    87   84   92 1   
    88   85   86 2   
    89   85  102 1   
    90   87   88 1   
    91   87   89 1   
    92   87   93 1   
    93   88   90 1   
    94   88   94 1   
    95   88   95 1   
    96   89   96 1   
    97   89   97 1   
    98   89   98 1   
    99   90   99 1   
   100   90  100 1   
   101   90  101 1   
   102  102  103 1   
   103  102  110 1   
   104  103  104 1   
   105  103  106 1   
   106  103  111 1   
   107  104  105 2   
   108  104  114 1   
   109  106  107 1   
   110  106  112 1   
   111  106  113 1   
   112  107  108 1   
   113  107  109 1   
   114  114  115 1   
   115  114  125 1   
   116  115  116 1   
   117  115  118 1   
   118  115  126 1   
   119  116  117 2   
   120  116  134 1   
   121  118  119 1   
   122  118  127 1   
   123  118  128 1   
   124  119  120 ar  
   125  119  121 ar  
   126  120  122 ar  
   127  120  129 1   
   128  121  123 ar  
   129  121  130 1   
   130  122  124 ar  
   131  122  131 1   
   132  123  124 ar  
   133  123  132 1   
   134  124  133 1   
   135  134  135 1   
   136  134  140 1   
   137  135  136 1   
   138  135  138 1   
   139  135  141 1   
   140  136  137 2   
   141  136  148 1   
   142  138  139 1   
   143  138  142 1   
   144  138  143 1   
   145  139  140 1   
   146  139  144 1   
   147  139  145 1   
   148  140  146 1   
   149  140  147 1   
   150  148  149 1   
   151  148  157 1   
   152  149  150 1   
   153  149  152 1   
   154  149  158 1   
   155  150  151 2   
   156  150  163 1   
   157  152  153 1   
   158  152  159 1   
   159  152  160 1   
   160  153  154 1   
   161  153  161 1   
   162  153  162 1   
   163  154  155 1   
   164  154  156 1   
   165  163  164 1   
   166  163  168 1   
   167  164  165 1   
   168  164  166 1   
   169  164  167 1   
   170  170  171 1   
   171  170  172 1   
@<TRIPOS>SUBSTRUCTURE
     1 MOL         1 TEMP              0 ****  ****    0 ROOT
