@<TRIPOS>MOLECULE
MOL
  172   171     1     0     0
SMALL
resp


@<TRIPOS>ATOM
      1 C1          0.2650   -3.6000    5.5840 c3        1 MOL     -0.440001
      2 C2          0.6710   -3.3350    4.1740 c         1 MOL      0.717565
      3 O1         -0.0810   -3.7100    3.2740 o         1 MOL     -0.589297
      4 H1         -0.7810   -3.3270    5.7170 hc        1 MOL      0.106651
      5 H2          0.3960   -4.6580    5.8070 hc        1 MOL      0.106651
      6 H3          0.8830   -3.0070    6.2580 hc        1 MOL      0.106651
      7 N1          1.8240   -2.7190    3.9860 n         1 MOL     -0.591179
      8 C3          2.4350   -2.4000    2.7020 c3        1 MOL      0.154238
      9 C4          2.6850   -3.6720    1.9680 c         1 MOL      0.555420
     10 O2          3.5850   -4.4340    2.2980 o         1 MOL     -0.603679
     11 C5          3.6530   -1.5580    3.0180 c3        1 MOL     -0.160915
     12 C6          4.3300   -0.9890    1.7450 c         1 MOL      0.683553
     13 O3          3.6500   -0.8740    0.6610 o         1 MOL     -0.658024
     14 O4          5.4440   -0.5230    1.9340 o         1 MOL     -0.658024
     15 H4          2.3370   -2.4490    4.8090 hn        1 MOL      0.317866
     16 H5          1.7060   -1.8560    2.0910 h1        1 MOL      0.039645
     17 H6          4.3260   -2.0430    3.7090 hc        1 MOL      0.028222
     18 H7          3.1410   -0.7640    3.5540 hc        1 MOL      0.028222
     19 N2          1.8680   -3.9930    0.9460 n         1 MOL     -0.287933
     20 C7          2.0300   -5.1960    0.1500 c3        1 MOL      0.040248
     21 C8          3.1270   -5.1540   -0.9430 c         1 MOL      0.429809
     22 O5          3.4480   -6.2490   -1.4750 o         1 MOL     -0.577200
     23 C9          0.6130   -5.3790   -0.4970 c3        1 MOL     -0.114360
     24 H8          1.1170   -3.3360    0.7580 hn        1 MOL      0.251714
     25 H9          2.2660   -6.0720    0.7560 h1        1 MOL      0.060641
     26 H10         0.4640   -6.3360   -0.9880 hc        1 MOL      0.043317
     27 H11        -0.1730   -5.3770    0.2630 hc        1 MOL      0.043317
     28 H12         0.3290   -4.6280   -1.2290 hc        1 MOL      0.043317
     29 N3          3.6510   -3.9840   -1.3120 n         1 MOL     -0.170479
     30 C10         4.6210   -3.8000   -2.4060 c3        1 MOL     -0.113549
     31 C11         5.8810   -3.0210   -1.9870 c         1 MOL      0.436406
     32 O6          6.7030   -2.5330   -2.8320 o         1 MOL     -0.551832
     33 C12         4.0200   -3.2250   -3.7140 c3        1 MOL      0.018100
     34 C13         3.4430   -1.8030   -3.5680 c         1 MOL      0.609564
     35 O7          2.9280   -1.3700   -2.4740 o         1 MOL     -0.666746
     36 O8          3.2590   -1.2420   -4.6360 o         1 MOL     -0.666746
     37 H13         3.2570   -3.1360   -0.9360 hn        1 MOL      0.122973
     38 H14         4.9600   -4.7700   -2.7670 h1        1 MOL      0.097320
     39 H15         3.1680   -3.8330   -4.0200 hc        1 MOL      0.014692
     40 H16         4.7310   -3.2380   -4.5450 hc        1 MOL      0.014692
     41 N4          6.1080   -2.7700   -0.7250 n         1 MOL     -0.250078
     42 C14         7.2970   -2.1360   -0.1300 c3        1 MOL     -0.091382
     43 C15         7.6760   -0.6950   -0.4120 c         1 MOL      0.448422
     44 O9          8.8760   -0.3510   -0.3800 o         1 MOL     -0.597229
     45 H17         5.4250   -3.1560   -0.0860 hn        1 MOL      0.194371
     46 H18         8.1180   -2.8180   -0.3710 h1        1 MOL      0.091819
     47 H19         7.2450   -2.1830    0.9550 h1        1 MOL      0.091819
     48 N5          6.7450    0.0790   -0.9310 n         1 MOL     -0.027399
     49 C16         6.9960    1.4760   -1.3390 c3        1 MOL     -0.151663
     50 C17         6.6660    2.5110   -0.2760 c         1 MOL      0.485843
     51 O10         6.5360    3.6990   -0.5710 o         1 MOL     -0.555311
     52 C18         6.1520    1.7450   -2.6480 c3        1 MOL     -0.119857
     53 C19         4.6820    1.6190   -2.5780 c         1 MOL      0.733585
     54 N6          4.0610    1.6560   -3.7010 n         1 MOL     -0.717449
     55 O11         4.0010    1.5730   -1.5670 o         1 MOL     -0.612788
     56 H20         5.8150   -0.3030   -0.9990 hn        1 MOL      0.092667
     57 H21         8.0430    1.5630   -1.6150 h1        1 MOL      0.140068
     58 H22         6.5060    1.0230   -3.3810 hc        1 MOL      0.036670
     59 H23         6.2180    2.7360   -3.0870 hc        1 MOL      0.036670
     60 H24         4.5830    1.3710   -4.5240 hn        1 MOL      0.339796
     61 H25         3.0490    1.6260   -3.7010 hn        1 MOL      0.339796
     62 N7          6.3450    2.1070    0.9550 n         1 MOL     -0.323157
     63 C20         6.0870    2.9690    2.0520 c3        1 MOL      0.020548
     64 C21         4.9490    3.9970    1.9560 c         1 MOL      0.351845
     65 O12         4.7880    4.8510    2.8710 o         1 MOL     -0.556431
     66 H26         6.1690    1.1320    1.1230 hn        1 MOL      0.235455
     67 H27         6.9960    3.4360    2.4220 h1        1 MOL      0.071377
     68 H28         5.8490    2.2810    2.8670 h1        1 MOL      0.071377
     69 N8          3.9540    3.7600    1.0600 n         1 MOL     -0.068247
     70 C22         2.7060    4.5010    1.0900 c3        1 MOL     -0.007327
     71 C23         1.5310    3.6040    1.0390 c         1 MOL      0.693925
     72 O13         1.6990    2.4130    0.7270 o         1 MOL     -0.722177
     73 C24         2.6670    5.5080   -0.1130 c3        1 MOL      0.398608
     74 C25         3.8450    6.4630   -0.0720 c3        1 MOL     -0.421415
     75 O14         2.5920    4.8660   -1.3680 oh        1 MOL     -0.671356
     76 H29         3.9320    3.0040    0.3940 hn        1 MOL      0.124400
     77 H30         2.6560    5.0970    1.9970 h1        1 MOL      0.038046
     78 H31         1.7670    6.1010    0.0280 h1        1 MOL     -0.029938
     79 H32         3.3790    5.0620   -1.8880 ho        1 MOL      0.442842
     80 H33         3.7850    7.2130   -0.8590 hc        1 MOL      0.104153
     81 H34         3.9330    6.9010    0.9300 hc        1 MOL      0.104153
     82 H35         4.6650    5.8330   -0.3980 hc        1 MOL      0.104153
     83 N9          0.3180    4.0550    1.4370 n         1 MOL     -0.617679
     84 C26        -0.8910    3.2200    1.4280 c3        1 MOL      0.228720
     85 C27        -1.5980    3.2690    0.1360 c         1 MOL      0.442421
     86 O15        -2.0280    4.2800   -0.3400 o         1 MOL     -0.567828
     87 C28        -1.6800    3.6030    2.7160 c3        1 MOL      0.006770
     88 C29        -1.0090    3.1520    4.0070 c3        1 MOL     -0.169355
     89 C30        -3.1350    3.1790    2.5790 c3        1 MOL     -0.110151
     90 C31        -1.1580    1.6780    4.3750 c3        1 MOL      0.082614
     91 H36         0.1990    4.9990    1.7790 hn        1 MOL      0.276332
     92 H37        -0.5770    2.1750    1.4840 h1        1 MOL      0.310879
     93 H38        -1.7400    4.6900    2.7500 hc        1 MOL      0.005205
     94 H39        -1.5090    3.6700    4.8200 hc        1 MOL      0.039495
     95 H40         0.0650    3.3390    3.9840 hc        1 MOL      0.039495
     96 H41        -3.0250    2.1170    2.3720 hc        1 MOL      0.014890
     97 H42        -3.7220    3.2930    3.4910 hc        1 MOL      0.014890
     98 H43        -3.5930    3.7420    1.7700 hc        1 MOL      0.014890
     99 H44        -0.7800    1.5170    5.3820 hc        1 MOL     -0.023242
    100 H45        -2.1940    1.3290    4.4080 hc        1 MOL     -0.023242
    101 H46        -0.5310    1.2180    3.6060 hc        1 MOL     -0.023242
    102 N10        -1.9690    2.0450   -0.4130 n         1 MOL     -0.114694
    103 C32        -2.8520    1.7620   -1.4460 c3        1 MOL      0.020921
    104 C33        -4.2050    1.3940   -0.7950 c         1 MOL      0.441775
    105 O16        -4.3250    0.8780    0.3320 o         1 MOL     -0.332247
    106 C34        -2.3460    0.6330   -2.3290 c3        1 MOL     -0.357108
    107 C35        -1.0520    0.7770   -3.0120 c         1 MOL      0.774873
    108 O17        -0.0870    0.0120   -2.6440 o         1 MOL     -0.711147
    109 O18        -0.8550    1.6850   -3.8800 o         1 MOL     -0.711147
    110 H47        -1.4710    1.3050    0.0660 hn        1 MOL     -0.014364
    111 H48        -3.0040    2.6630   -2.0360 h1        1 MOL      0.056407
    112 H49        -3.0390    0.5820   -3.1690 hc        1 MOL      0.096004
    113 H50        -2.4870   -0.2990   -1.7830 hc        1 MOL      0.096004
    114 N11        -5.3520    1.6110   -1.5320 n         1 MOL     -0.541363
    115 C36        -6.7330    1.2770   -1.2120 c3        1 MOL      0.331006
    116 C37        -6.8360   -0.1590   -0.5430 c         1 MOL      0.232828
    117 O19        -7.2650   -0.2900    0.6300 o         1 MOL     -0.500082
    118 C38        -7.6040    1.3880   -2.4610 c3        1 MOL     -0.229303
    119 C39        -9.1210    1.1330   -2.2720 ca        1 MOL      0.054606
    120 C40        -9.9190    2.0910   -1.6990 ca        1 MOL     -0.082676
    121 C41        -9.7150   -0.0860   -2.6610 ca        1 MOL     -0.082676
    122 C42       -11.3300    2.0400   -1.7240 ca        1 MOL     -0.192618
    123 C43       -11.1280   -0.3010   -2.4600 ca        1 MOL     -0.192618
    124 C44       -11.9360    0.8280   -2.0830 ca        1 MOL     -0.047719
    125 H51        -5.2220    2.0010   -2.4550 hn        1 MOL      0.294909
    126 H52        -7.0470    1.9930   -0.4660 h1        1 MOL      0.029834
    127 H53        -7.3150    0.6310   -3.1830 hc        1 MOL      0.074136
    128 H54        -7.3800    2.3730   -2.8700 hc        1 MOL      0.074136
    129 H55        -9.4980    3.0270   -1.3570 ha        1 MOL      0.091334
    130 H56        -9.0650   -0.8970   -2.9880 ha        1 MOL      0.091334
    131 H57       -11.9330    2.8500   -1.3340 ha        1 MOL      0.135519
    132 H58       -11.5460   -1.2920   -2.4730 ha        1 MOL      0.135519
    133 H59       -12.9990    0.6830   -2.1280 ha        1 MOL      0.087222
    134 N12        -6.4310   -1.2850   -1.2310 n         1 MOL      0.044393
    135 C45        -6.3830   -2.6190   -0.5900 c3        1 MOL     -0.181973
    136 C46        -5.6070   -2.7610    0.7570 c         1 MOL      0.440737
    137 O20        -5.7650   -3.7650    1.4850 o         1 MOL     -0.542930
    138 C47        -5.7600   -3.6030   -1.6320 c3        1 MOL     -0.040853
    139 C48        -4.9950   -2.7090   -2.6040 c3        1 MOL     -0.030711
    140 C49        -5.7880   -1.3810   -2.5610 c3        1 MOL     -0.089566
    141 H60        -7.3770   -3.0170   -0.3850 h1        1 MOL      0.112001
    142 H61        -5.1070   -4.3920   -1.2420 hc        1 MOL      0.047656
    143 H62        -6.5720   -4.1260   -2.1470 hc        1 MOL      0.047656
    144 H63        -3.9770   -2.5390   -2.2560 hc        1 MOL      0.039929
    145 H64        -5.0530   -3.1490   -3.6040 hc        1 MOL      0.039929
    146 H65        -5.2620   -0.5540   -3.0390 h1        1 MOL      0.041196
    147 H66        -6.6610   -1.4750   -3.2030 h1        1 MOL      0.041196
    148 N13        -4.7660   -1.8140    1.1030 n         1 MOL     -0.204136
    149 C50        -4.0450   -1.7170    2.3270 c3        1 MOL      0.003980
    150 C51        -4.7210   -0.9340    3.5000 c         1 MOL      0.426274
    151 O21        -4.8180   -1.3920    4.6090 o         1 MOL     -0.542902
    152 C52        -2.5440   -1.2790    2.1120 c3        1 MOL      0.192232
    153 C53        -1.8920   -1.8320    0.8250 c3        1 MOL     -0.230920
    154 C54        -0.5350   -1.1750    0.4950 c         1 MOL      0.813783
    155 O22        -0.4460    0.0760    0.5160 o         1 MOL     -0.797399
    156 O23         0.4410   -1.8370    0.1020 o         1 MOL     -0.797399
    157 H67        -4.6010   -0.9730    0.5650 hn        1 MOL      0.215734
    158 H68        -3.9510   -2.7350    2.6870 h1        1 MOL      0.069647
    159 H69        -2.0620   -1.6600    3.0120 hc        1 MOL     -0.051239
    160 H70        -2.5160   -0.1860    2.0690 hc        1 MOL     -0.051239
    161 H71        -2.5640   -1.5250    0.0210 hc        1 MOL      0.077046
    162 H72        -1.8470   -2.9110    0.7400 hc        1 MOL      0.077046
    163 N14        -5.3820    0.2220    3.2010 n         1 MOL     -0.030011
    164 C55        -6.2800    0.8680    4.1320 c3        1 MOL     -0.248566
    165 H73        -6.3410    0.2780    5.0470 h1        1 MOL      0.086320
    166 H74        -5.9050    1.8640    4.3680 h1        1 MOL      0.086320
    167 H75        -7.2720    0.9490    3.6860 h1        1 MOL      0.086320
    168 H76        -5.3290    0.5130    2.2300 hn        1 MOL      0.102897
    169 Ca1         1.7810    0.2070   -0.8300 Ca        1 MOL      1.724307
    170 O24         1.4050    2.5830   -2.0970 oh        1 MOL     -0.816501
    171 H77         0.7920    2.6670   -2.8270 ho        1 MOL      0.399624
    172 H78         1.4490    3.4580   -1.7210 ho        1 MOL      0.399624
@<TRIPOS>BOND
     1    1    2 1   
     2    1    4 1   
     3    1    5 1   
     4    1    6 1   
     5    2    3 2   
     6    2    7 1   
     7    7    8 1   
     8    7   15 1   
     9    8    9 1   
    10    8   11 1   
    11    8   16 1   
    12    9   10 2   
    13    9   19 1   
    14   11   12 1   
    15   11   17 1   
    16   11   18 1   
    17   12   13 1   
    18   12   14 1   
    19   19   20 1   
    20   19   24 1   
    21   20   21 1   
    22   20   23 1   
    23   20   25 1   
    24   21   22 2   
    25   21   29 1   
    26   23   26 1   
    27   23   27 1   
    28   23   28 1   
    29   29   30 1   
    30   29   37 1   
    31   30   31 1   
    32   30   33 1   
    33   30   38 1   
    34   31   32 2   
    35   31   41 1   
    36   33   34 1   
    37   33   39 1   
    38   33   40 1   
    39   34   35 1   
    40   34   36 1   
    41   41   42 1   
    42   41   45 1   
    43   42   43 1   
    44   42   46 1   
    45   42   47 1   
    46   43   44 2   
    47   43   48 1   
    48   48   49 1   
    49   48   56 1   
    50   49   50 1   
    51   49   52 1   
    52   49   57 1   
    53   50   51 2   
    54   50   62 1   
    55   52   53 1   
    56   52   58 1   
    57   52   59 1   
    58   53   54 1   
    59   53   55 2   
    60   54   60 1   
    61   54   61 1   
    62   62   63 1   
    63   62   66 1   
    64   63   64 1   
    65   63   67 1   
    66   63   68 1   
    67   64   65 2   
    68   64   69 1   
    69   69   70 1   
    70   69   76 1   
    71   70   71 1   
    72   70   73 1   
    73   70   77 1   
    74   71   72 2   
    75   71   83 1   
    76   73   74 1   
    77   73   75 1   
    78   73   78 1   
    79   74   80 1   
    80   74   81 1   
    81   74   82 1   
    82   75   79 1   
    83   83   84 1   
    84   83   91 1   
    85   84   85 1   
    86   84   87 1   
    87   84   92 1   
    88   85   86 2   
    89   85  102 1   
    90   87   88 1   
    91   87   89 1   
    92   87   93 1   
    93   88   90 1   
    94   88   94 1   
    95   88   95 1   
    96   89   96 1   
    97   89   97 1   
    98   89   98 1   
    99   90   99 1   
   100   90  100 1   
   101   90  101 1   
   102  102  103 1   
   103  102  110 1   
   104  103  104 1   
   105  103  106 1   
   106  103  111 1   
   107  104  105 2   
   108  104  114 1   
   109  106  107 1   
   110  106  112 1   
   111  106  113 1   
   112  107  108 1   
   113  107  109 1   
   114  114  115 1   
   115  114  125 1   
   116  115  116 1   
   117  115  118 1   
   118  115  126 1   
   119  116  117 2   
   120  116  134 1   
   121  118  119 1   
   122  118  127 1   
   123  118  128 1   
   124  119  120 ar  
   125  119  121 ar  
   126  120  122 ar  
   127  120  129 1   
   128  121  123 ar  
   129  121  130 1   
   130  122  124 ar  
   131  122  131 1   
   132  123  124 ar  
   133  123  132 1   
   134  124  133 1   
   135  134  135 1   
   136  134  140 1   
   137  135  136 1   
   138  135  138 1   
   139  135  141 1   
   140  136  137 2   
   141  136  148 1   
   142  138  139 1   
   143  138  142 1   
   144  138  143 1   
   145  139  140 1   
   146  139  144 1   
   147  139  145 1   
   148  140  146 1   
   149  140  147 1   
   150  148  149 1   
   151  148  157 1   
   152  149  150 1   
   153  149  152 1   
   154  149  158 1   
   155  150  151 2   
   156  150  163 1   
   157  152  153 1   
   158  152  159 1   
   159  152  160 1   
   160  153  154 1   
   161  153  161 1   
   162  153  162 1   
   163  154  155 1   
   164  154  156 1   
   165  163  164 1   
   166  163  168 1   
   167  164  165 1   
   168  164  166 1   
   169  164  167 1   
   170  170  171 1   
   171  170  172 1   
@<TRIPOS>SUBSTRUCTURE
     1 MOL         1 TEMP              0 ****  ****    0 ROOT
