@<TRIPOS>MOLECULE
MOL
  183   181     1     0     0
SMALL
resp


@<TRIPOS>ATOM
      1 C1         -0.9090    1.8520    6.2950 c3        1 MOL     -0.328726
      2 C2         -1.1130    1.8270    4.7620 c         1 MOL      0.862202
      3 O1         -0.3720    2.3680    3.9650 o         1 MOL     -0.684659
      4 H1         -0.2770    2.6980    6.5630 hc        1 MOL      0.073318
      5 H2         -1.8760    1.9500    6.7890 hc        1 MOL      0.073318
      6 H3         -0.4300    0.9260    6.6130 hc        1 MOL      0.073318
      7 N1         -2.1530    1.2350    4.3130 n         1 MOL     -0.620686
      8 C3         -2.6880    1.2670    2.9470 c3        1 MOL      0.122293
      9 C4         -3.2580    2.6010    2.6090 c         1 MOL      0.523625
     10 O2         -3.9980    3.2130    3.3890 o         1 MOL     -0.578035
     11 C5         -3.9110    0.2880    2.8240 c3        1 MOL     -0.066293
     12 C6         -4.5160    0.1280    1.4320 c         1 MOL      0.690909
     13 O3         -5.5880   -0.5080    1.3170 o         1 MOL     -0.649825
     14 O4         -3.9090    0.7090    0.4370 o         1 MOL     -0.649825
     15 H4         -2.7140    0.7580    5.0170 hn        1 MOL      0.304907
     16 H5         -1.9860    1.0540    2.1370 h1        1 MOL     -0.040941
     17 H6         -4.5980    0.5400    3.6360 hc        1 MOL      0.004263
     18 H7         -3.5740   -0.6960    3.1320 hc        1 MOL      0.004263
     19 N2         -2.7290    3.2500    1.5700 n         1 MOL     -0.320298
     20 C7         -2.9190    4.6720    1.2060 c3        1 MOL     -0.029454
     21 C8         -3.9430    4.8910    0.0890 c         1 MOL      0.473127
     22 O5         -4.7390    5.8290    0.2010 o         1 MOL     -0.598294
     23 C9         -1.5660    5.2950    0.7390 c3        1 MOL      0.255665
     24 C10        -0.5340    4.9900    1.8570 c3        1 MOL      0.295440
     25 C11        -1.6680    6.8130    0.6190 c3        1 MOL     -0.419257
     26 C12         0.9230    5.4730    1.5460 c3        1 MOL     -0.443804
     27 H8         -1.9250    2.8540    1.1100 hn        1 MOL      0.259764
     28 H9         -3.2690    5.2050    2.0850 h1        1 MOL      0.071394
     29 H10        -1.1910    4.7830   -0.1430 hc        1 MOL     -0.026618
     30 H11        -0.4670    3.9190    2.0490 hc        1 MOL     -0.055496
     31 H12        -0.9260    5.5240    2.7210 hc        1 MOL     -0.055496
     32 H13        -1.5500    7.2770    1.5910 hc        1 MOL      0.087636
     33 H14        -0.8940    7.2030   -0.0350 hc        1 MOL      0.087636
     34 H15        -2.6410    7.1300    0.2210 hc        1 MOL      0.087636
     35 H16         1.5080    4.7220    1.0140 hc        1 MOL      0.091542
     36 H17         0.9220    6.4220    1.0170 hc        1 MOL      0.091542
     37 H18         1.4680    5.3880    2.4960 hc        1 MOL      0.091542
     38 N3         -4.0150    4.0110   -0.8910 n         1 MOL     -0.305685
     39 C13        -5.0840    4.0030   -1.9050 c3        1 MOL      0.198699
     40 C14        -6.2900    3.0660   -1.5700 c         1 MOL      0.425619
     41 O6         -7.2590    3.1270   -2.3340 o         1 MOL     -0.538757
     42 C15        -4.5140    3.6900   -3.3140 c3        1 MOL     -0.494458
     43 C16        -3.5640    2.4860   -3.4640 c         1 MOL      0.795384
     44 O7         -3.0820    2.2420   -4.5700 o         1 MOL     -0.702454
     45 O8         -3.2080    1.6440   -2.5580 o         1 MOL     -0.702454
     46 H19        -3.4470    3.1820   -0.8050 hn        1 MOL      0.146482
     47 H20        -5.5890    4.9670   -1.9610 h1        1 MOL      0.059972
     48 H21        -4.1290    4.6370   -3.6990 hc        1 MOL      0.121212
     49 H22        -5.3410    3.4250   -3.9760 hc        1 MOL      0.121212
     50 N4         -6.2660    2.3390   -0.4380 n         1 MOL     -0.290372
     51 C17        -7.5190    1.7440    0.1130 c3        1 MOL     -0.258199
     52 C18        -7.9980    0.5030   -0.6840 c         1 MOL      0.493938
     53 O9         -9.2050    0.3120   -0.8890 o         1 MOL     -0.586488
     54 H23        -5.3960    2.1560    0.0480 hn        1 MOL      0.269346
     55 H24        -8.2190    2.5750    0.0770 h1        1 MOL      0.133127
     56 H25        -7.3250    1.5370    1.1660 h1        1 MOL      0.133127
     57 N5         -7.0450   -0.3080   -1.1900 n         1 MOL     -0.037890
     58 C19        -7.4060   -1.6030   -1.8670 c3        1 MOL     -0.024493
     59 C20        -7.5380   -2.7450   -0.8020 c         1 MOL      0.431998
     60 O10        -7.9810   -3.8560   -1.0790 o         1 MOL     -0.571258
     61 C21        -6.3960   -1.9370   -2.9310 c3        1 MOL     -0.080758
     62 C22        -4.9310   -1.6010   -2.6720 c         1 MOL      0.650629
     63 O11        -4.0650   -1.2620   -3.5120 o         1 MOL     -0.688510
     64 O12        -4.4920   -1.8850   -1.5380 o         1 MOL     -0.688510
     65 H26        -6.0870   -0.2310   -0.8890 hn        1 MOL     -0.003359
     66 H27        -8.4300   -1.4650   -2.2220 h1        1 MOL      0.090052
     67 H28        -6.7310   -1.3670   -3.8030 hc        1 MOL      0.019050
     68 H29        -6.4940   -2.9770   -3.2450 hc        1 MOL      0.019050
     69 N6         -7.0110   -2.5290    0.4100 n         1 MOL     -0.285491
     70 C23        -7.0130   -3.5990    1.5020 c3        1 MOL      0.106837
     71 C24        -5.6970   -4.4410    1.6550 c         1 MOL      0.392489
     72 O13        -5.7680   -5.6470    2.0350 o         1 MOL     -0.583674
     73 H30        -6.4930   -1.6820    0.5260 hn        1 MOL      0.194580
     74 H31        -7.9340   -4.1710    1.4750 h1        1 MOL      0.023342
     75 H32        -7.1000   -3.1420    2.4780 h1        1 MOL      0.023342
     76 N7         -4.6130   -3.9420    1.0970 n         1 MOL     -0.094550
     77 C25        -3.2680   -4.5730    1.1120 c3        1 MOL     -0.066474
     78 C26        -2.2200   -3.4810    1.0890 c         1 MOL      0.444541
     79 O14        -2.4230   -2.2880    0.7220 o         1 MOL     -0.573789
     80 C27        -2.9940   -5.4700   -0.0330 c3        1 MOL      0.244201
     81 C28        -3.3490   -4.9980   -1.4550 c3        1 MOL     -0.403167
     82 C29        -2.2180   -4.2930   -2.1650 c         1 MOL      0.740660
     83 N8         -1.2920   -4.9780   -2.7890 n         1 MOL     -0.839417
     84 O15        -2.0550   -3.0860   -1.9200 o         1 MOL     -0.585894
     85 H33        -4.6550   -2.9980    0.7560 hn        1 MOL      0.155305
     86 H34        -3.3230   -5.2180    1.9850 h1        1 MOL      0.046734
     87 H35        -3.4350   -6.4640    0.0720 hc        1 MOL     -0.042886
     88 H36        -1.9430   -5.7690    0.0710 hc        1 MOL     -0.042886
     89 H37        -4.1990   -4.3250   -1.4210 hc        1 MOL      0.129886
     90 H38        -3.6770   -5.8640   -2.0240 hc        1 MOL      0.129886
     91 H39        -1.2200   -5.9860   -2.7180 hn        1 MOL      0.367793
     92 H40        -0.5250   -4.4500   -3.1820 hn        1 MOL      0.367793
     93 N9         -1.0140   -3.8000    1.4820 n         1 MOL     -0.274575
     94 C30         0.1030   -2.8970    1.7030 c3        1 MOL      0.082087
     95 C31         1.2990   -3.3210    0.8610 c         1 MOL      0.353485
     96 O16         1.8150   -4.4160    1.1350 o         1 MOL     -0.567549
     97 C32         0.5270   -2.8320    3.2020 c3        1 MOL      0.182400
     98 C33         1.9300   -2.2800    3.5460 c3        1 MOL     -0.186811
     99 C34        -0.4530   -1.7560    3.7470 c3        1 MOL     -0.186811
    100 H41        -0.9450   -4.6900    1.9550 hn        1 MOL      0.234081
    101 H42        -0.1900   -1.8790    1.4600 h1        1 MOL      0.081912
    102 H43         0.3190   -3.8010    3.6510 hc        1 MOL     -0.019950
    103 H44         2.6490   -2.9540    3.0950 hc        1 MOL      0.028843
    104 H45         2.0970   -1.3180    3.0520 hc        1 MOL      0.028843
    105 H46         1.9840   -2.3830    4.6260 hc        1 MOL      0.028843
    106 H47        -1.4320   -2.2160    3.6890 hc        1 MOL      0.028843
    107 H48        -0.2850   -1.5610    4.8050 hc        1 MOL      0.028843
    108 H49        -0.4350   -0.7550    3.3050 hc        1 MOL      0.028843
    109 N10         1.8570   -2.4980   -0.0590 n         1 MOL     -0.313040
    110 C35         3.1010   -2.8200   -0.8420 c3        1 MOL      0.448232
    111 C36         4.3600   -2.2010   -0.2040 c         1 MOL      0.243197
    112 O17         4.3140   -1.5730    0.8550 o         1 MOL     -0.282107
    113 C37         2.9950   -2.4530   -2.3050 c3        1 MOL     -0.510984
    114 C38         3.5250   -1.0240   -2.6990 c         1 MOL      0.732591
    115 N11         2.8590   -0.0310   -2.2180 n         1 MOL     -0.765998
    116 O18         4.4440   -0.8960   -3.4460 o         1 MOL     -0.559661
    117 H50         1.4170   -1.5890   -0.0870 hn        1 MOL      0.093229
    118 H51         3.3630   -3.8830   -0.7740 h1        1 MOL     -0.000771
    119 H52         1.9890   -2.7840   -2.5660 hc        1 MOL      0.118274
    120 H53         3.6430   -3.1750   -2.7870 hc        1 MOL      0.118274
    121 H54         2.1050   -0.1350   -1.5640 hn        1 MOL      0.396671
    122 H55         3.0120    0.8740   -2.6470 hn        1 MOL      0.396671
    123 N12         5.5810   -2.4000   -0.7620 n         1 MOL     -0.406446
    124 C39         6.8350   -1.8650   -0.2770 c3        1 MOL      0.061494
    125 C40         6.9090   -0.3880   -0.1840 c         1 MOL      0.752584
    126 O19         7.4100    0.1230    0.8190 o         1 MOL     -0.568623
    127 C41         7.9410   -2.5440   -1.0520 c3        1 MOL     -0.090068
    128 C42         9.3040   -2.1460   -0.5900 ca        1 MOL      0.078656
    129 C43         9.6790   -2.6220    0.6900 ca        1 MOL     -0.286819
    130 C44        10.0900   -1.3200   -1.3890 ca        1 MOL     -0.286819
    131 C45        10.9090   -2.1610    1.1850 ca        1 MOL     -0.108117
    132 C46        11.2580   -0.9200   -0.8560 ca        1 MOL     -0.108117
    133 C47        11.7040   -1.2710    0.4050 ca        1 MOL      0.242445
    134 O20        12.8480   -0.9480    1.0320 oh        1 MOL     -0.516971
    135 H56         5.5600   -2.9180   -1.6210 hn        1 MOL      0.231038
    136 H57         6.8270   -2.2160    0.7630 h1        1 MOL      0.046356
    137 H58         7.7980   -2.3030   -2.1020 hc        1 MOL      0.043752
    138 H59         7.9370   -3.6240   -0.9150 hc        1 MOL      0.043752
    139 H60         8.9670   -3.1830    1.2650 ha        1 MOL      0.182649
    140 H61         9.7880   -1.0080   -2.3730 ha        1 MOL      0.182649
    141 H62        11.2410   -2.5740    2.1150 ha        1 MOL      0.096850
    142 H63        11.9390   -0.3100   -1.4460 ha        1 MOL      0.096850
    143 H64        13.5770   -0.5320    0.5620 ho        1 MOL      0.383076
    144 N13         6.3550    0.4150   -1.0910 n         1 MOL     -0.500236
    145 C48         6.3660    1.9050   -0.8830 c3        1 MOL      0.101333
    146 C49         5.4170    2.3270    0.2570 c         1 MOL      0.371430
    147 O21         5.6990    3.2270    0.9990 o         1 MOL     -0.512533
    148 C50         5.9150    2.5520   -2.1960 c3        1 MOL      0.017202
    149 C51         7.1260    2.9890   -3.0010 c3        1 MOL     -0.222064
    150 C52         6.6830    3.2990   -4.4790 c         1 MOL      0.688521
    151 O22         6.6740    2.3230   -5.2790 o         1 MOL     -0.730278
    152 O23         6.3880    4.4550   -4.7480 o         1 MOL     -0.730278
    153 H65         5.9440   -0.0520   -1.8880 hn        1 MOL      0.265091
    154 H66         7.3490    2.2740   -0.6130 h1        1 MOL      0.069978
    155 H67         5.4270    3.4770   -1.8920 hc        1 MOL      0.049214
    156 H68         5.2060    2.0090   -2.8320 hc        1 MOL      0.049214
    157 H69         7.9370    2.2680   -2.9800 hc        1 MOL      0.015853
    158 H70         7.4570    3.9330   -2.5760 hc        1 MOL      0.015853
    159 N14         4.2280    1.7330    0.4690 n         1 MOL     -0.235538
    160 C53         3.3770    1.9970    1.6590 c3        1 MOL      0.007048
    161 C54         3.9350    1.5660    2.9870 c         1 MOL      0.398105
    162 O24         3.6530    2.1980    4.0180 o         1 MOL     -0.554919
    163 C55         1.9840    1.3380    1.4990 c3        1 MOL      0.028454
    164 C56         1.2440    1.8950    0.2240 c3        1 MOL      0.162848
    165 C57         0.0500    0.9890   -0.1940 c         1 MOL      0.674910
    166 O25        -1.0200    1.5180   -0.4650 o         1 MOL     -0.693670
    167 O26         0.2540   -0.2540   -0.4480 o         1 MOL     -0.693670
    168 H71         3.9790    0.9830   -0.1690 hn        1 MOL      0.010224
    169 H72         3.2200    3.0690    1.7650 h1        1 MOL      0.114029
    170 H73         1.3670    1.6080    2.3540 hc        1 MOL      0.066887
    171 H74         2.0030    0.2480    1.4210 hc        1 MOL      0.066887
    172 H75         1.9160    2.0040   -0.6290 hc        1 MOL     -0.081542
    173 H76         0.8310    2.8600    0.5180 hc        1 MOL     -0.081542
    174 N15         4.6680    0.4200    3.0440 n         1 MOL      0.042681
    175 C58         5.4700   -0.0740    4.2390 c3        1 MOL     -0.350754
    176 H77         6.0940    0.7360    4.6180 h1        1 MOL      0.116346
    177 H78         4.7890   -0.4040    5.0230 h1        1 MOL      0.116346
    178 H79         6.1040   -0.9070    3.9320 h1        1 MOL      0.116346
    179 H80         4.8780   -0.0770    2.1880 hn        1 MOL      0.006068
    180 Ca1        -2.3450   -0.4710   -1.3630 Ca        1 MOL      1.756252
    181 O27        -0.8130   -0.6190   -3.5300 oh        1 MOL     -0.887712
    182 H81        -0.9150   -0.0030   -4.2520 ho        1 MOL      0.424747
    183 H82        -0.4100   -1.3890   -3.9210 ho        1 MOL      0.424747
@<TRIPOS>BOND
     1    1    2 1   
     2    1    4 1   
     3    1    5 1   
     4    1    6 1   
     5    2    3 2   
     6    2    7 1   
     7    7    8 1   
     8    7   15 1   
     9    8    9 1   
    10    8   11 1   
    11    8   16 1   
    12    9   10 2   
    13    9   19 1   
    14   11   12 1   
    15   11   17 1   
    16   11   18 1   
    17   12   13 1   
    18   12   14 1   
    19   19   20 1   
    20   19   27 1   
    21   20   21 1   
    22   20   23 1   
    23   20   28 1   
    24   21   22 2   
    25   21   38 1   
    26   23   24 1   
    27   23   25 1   
    28   23   29 1   
    29   24   26 1   
    30   24   30 1   
    31   24   31 1   
    32   25   32 1   
    33   25   33 1   
    34   25   34 1   
    35   26   35 1   
    36   26   36 1   
    37   26   37 1   
    38   38   39 1   
    39   38   46 1   
    40   39   40 1   
    41   39   42 1   
    42   39   47 1   
    43   40   41 2   
    44   40   50 1   
    45   42   43 1   
    46   42   48 1   
    47   42   49 1   
    48   43   44 1   
    49   43   45 1   
    50   50   51 1   
    51   50   54 1   
    52   51   52 1   
    53   51   55 1   
    54   51   56 1   
    55   52   53 2   
    56   52   57 1   
    57   57   58 1   
    58   57   65 1   
    59   58   59 1   
    60   58   61 1   
    61   58   66 1   
    62   59   60 2   
    63   59   69 1   
    64   61   62 1   
    65   61   67 1   
    66   61   68 1   
    67   62   63 1   
    68   62   64 1   
    69   69   70 1   
    70   69   73 1   
    71   70   71 1   
    72   70   74 1   
    73   70   75 1   
    74   71   72 2   
    75   71   76 1   
    76   76   77 1   
    77   76   85 1   
    78   77   78 1   
    79   77   80 1   
    80   77   86 1   
    81   78   79 2   
    82   78   93 1   
    83   80   81 1   
    84   80   87 1   
    85   80   88 1   
    86   81   82 1   
    87   81   89 1   
    88   81   90 1   
    89   82   83 1   
    90   82   84 2   
    91   83   91 1   
    92   83   92 1   
    93   93   94 1   
    94   93  100 1   
    95   94   95 1   
    96   94   97 1   
    97   94  101 1   
    98   95   96 2   
    99   95  109 1   
   100   97   98 1   
   101   97   99 1   
   102   97  102 1   
   103   98  103 1   
   104   98  104 1   
   105   98  105 1   
   106   99  106 1   
   107   99  107 1   
   108   99  108 1   
   109  109  110 1   
   110  109  117 1   
   111  110  111 1   
   112  110  113 1   
   113  110  118 1   
   114  111  112 2   
   115  111  123 1   
   116  113  114 1   
   117  113  119 1   
   118  113  120 1   
   119  114  115 1   
   120  114  116 2   
   121  115  121 1   
   122  115  122 1   
   123  123  124 1   
   124  123  135 1   
   125  124  125 1   
   126  124  127 1   
   127  124  136 1   
   128  125  126 2   
   129  125  144 1   
   130  127  128 1   
   131  127  137 1   
   132  127  138 1   
   133  128  129 ar  
   134  128  130 ar  
   135  129  131 ar  
   136  129  139 1   
   137  130  132 ar  
   138  130  140 1   
   139  131  133 ar  
   140  131  141 1   
   141  132  133 ar  
   142  132  142 1   
   143  133  134 1   
   144  134  143 1   
   145  144  145 1   
   146  144  153 1   
   147  145  146 1   
   148  145  148 1   
   149  145  154 1   
   150  146  147 2   
   151  146  159 1   
   152  148  149 1   
   153  148  155 1   
   154  148  156 1   
   155  149  150 1   
   156  149  157 1   
   157  149  158 1   
   158  150  151 1   
   159  150  152 1   
   160  159  160 1   
   161  159  168 1   
   162  160  161 1   
   163  160  163 1   
   164  160  169 1   
   165  161  162 2   
   166  161  174 1   
   167  163  164 1   
   168  163  170 1   
   169  163  171 1   
   170  164  165 1   
   171  164  172 1   
   172  164  173 1   
   173  165  166 1   
   174  165  167 1   
   175  174  175 1   
   176  174  179 1   
   177  175  176 1   
   178  175  177 1   
   179  175  178 1   
   180  181  182 1   
   181  181  183 1   
@<TRIPOS>SUBSTRUCTURE
     1 MOL         1 TEMP              0 ****  ****    0 ROOT
