@<TRIPOS>MOLECULE
MOL
  175   173     1     0     0
SMALL
resp


@<TRIPOS>ATOM
      1 C1          0.2870    3.5260    5.6140 c3        1 MOL     -0.447261
      2 C2         -0.1930    3.5450    4.1580 c         1 MOL      0.673393
      3 O1          0.5270    3.9010    3.2850 o         1 MOL     -0.487467
      4 H1         -0.4710    3.0560    6.2400 hc        1 MOL      0.100223
      5 H2          1.2170    2.9610    5.6830 hc        1 MOL      0.100223
      6 H3          0.4570    4.5470    5.9550 hc        1 MOL      0.100223
      7 N1         -1.4760    3.3560    4.0640 n         1 MOL     -0.526584
      8 C3         -2.1500    3.1790    2.7790 c3        1 MOL      0.111645
      9 C4         -2.2590    4.4570    2.0290 c         1 MOL      0.539423
     10 O2         -2.0860    5.5030    2.6240 o         1 MOL     -0.550886
     11 C5         -3.5850    2.6320    3.0550 c3        1 MOL     -0.287340
     12 C6         -4.3850    2.2340    1.7820 c         1 MOL      0.717396
     13 O3         -5.6060    2.0420    1.8200 o         1 MOL     -0.661072
     14 O4         -3.7340    2.0120    0.7280 o         1 MOL     -0.661072
     15 H4         -1.9530    3.1340    4.9210 hn        1 MOL      0.318115
     16 H5         -1.6460    2.4500    2.1510 h1        1 MOL      0.057237
     17 H6         -4.1440    3.3100    3.6980 hc        1 MOL      0.048269
     18 H7         -3.4500    1.8400    3.7850 hc        1 MOL      0.048269
     19 N2         -2.5500    4.3790    0.6930 n         1 MOL     -0.459568
     20 C7         -2.4520    5.5150   -0.2190 c3        1 MOL      0.129453
     21 C8         -3.2410    5.2810   -1.5510 c         1 MOL      0.316408
     22 O5         -3.1990    6.0210   -2.5040 o         1 MOL     -0.518263
     23 C9         -0.9650    5.5370   -0.6220 c3        1 MOL     -0.185269
     24 H8         -2.6540    3.4190    0.4010 hn        1 MOL      0.372105
     25 H9         -2.6130    6.4630    0.2770 h1        1 MOL      0.050408
     26 H10        -0.6800    4.6110   -1.1360 hc        1 MOL      0.057826
     27 H11        -0.8380    6.3410   -1.3360 hc        1 MOL      0.057826
     28 H12        -0.3660    5.7860    0.2590 hc        1 MOL      0.057826
     29 N3         -3.8240    4.0940   -1.6070 n         1 MOL     -0.043422
     30 C10        -4.6500    3.6270   -2.7660 c3        1 MOL     -0.006814
     31 C11        -5.9570    2.8560   -2.3630 c         1 MOL      0.382391
     32 O6         -6.7950    2.6880   -3.2060 o         1 MOL     -0.516480
     33 C12        -3.8580    2.6340   -3.6700 c3        1 MOL     -0.147593
     34 C13        -3.2280    1.4220   -3.0050 c         1 MOL      0.733991
     35 O7         -3.6370    0.9900   -1.9090 o         1 MOL     -0.700798
     36 O8         -2.2490    0.9030   -3.6410 o         1 MOL     -0.700798
     37 H13        -3.9420    3.5640   -0.7560 hn        1 MOL     -0.049803
     38 H14        -4.9320    4.4890   -3.3710 h1        1 MOL      0.074887
     39 H15        -3.0610    3.2390   -4.1020 hc        1 MOL      0.044047
     40 H16        -4.4540    2.2470   -4.4900 hc        1 MOL      0.044047
     41 N4         -6.1810    2.3940   -1.1210 n         1 MOL     -0.268255
     42 C14        -7.2770    1.5260   -0.8060 c3        1 MOL     -0.370720
     43 C15        -7.2640    0.0730   -1.3370 c         1 MOL      0.585173
     44 O9         -8.3200   -0.5450   -1.3740 o         1 MOL     -0.615831
     45 H17        -5.5090    2.6290   -0.3990 hn        1 MOL      0.298171
     46 H18        -8.1420    1.9940   -1.2680 h1        1 MOL      0.161877
     47 H19        -7.5140    1.5810    0.2570 h1        1 MOL      0.161877
     48 N5         -6.1390   -0.5610   -1.7830 n         1 MOL     -0.294852
     49 C16        -6.0230   -1.9090   -2.3280 c3        1 MOL     -0.033369
     50 C17        -6.0290   -3.1530   -1.3380 c         1 MOL      0.371283
     51 O10        -5.7620   -4.2460   -1.8380 o         1 MOL     -0.513649
     52 C18        -4.7880   -1.9600   -3.1880 c3        1 MOL     -0.135813
     53 C19        -3.4950   -2.3110   -2.4330 c         1 MOL      0.552099
     54 N6         -2.5780   -2.8270   -3.1510 n         1 MOL     -0.468704
     55 O11        -3.3550   -2.0920   -1.2740 o         1 MOL     -0.748034
     56 H20        -5.3880    0.0820   -2.0030 hn        1 MOL      0.305171
     57 H21        -6.7700   -2.0790   -3.1040 h1        1 MOL      0.112252
     58 H22        -4.7880   -1.0500   -3.7760 hc        1 MOL      0.052553
     59 H23        -5.0150   -2.8160   -3.8320 hc        1 MOL      0.052553
     60 H24        -2.8060   -3.0820   -4.1000 hn        1 MOL      0.291107
     61 H25        -1.6390   -2.9150   -2.7750 hn        1 MOL      0.291107
     62 N7         -6.2320   -3.0320   -0.0660 n         1 MOL     -0.135480
     63 C20        -6.2850   -4.1050    0.9480 c3        1 MOL     -0.422649
     64 C21        -5.0020   -4.5130    1.6050 c         1 MOL      0.542129
     65 O12        -4.9700   -5.3330    2.5210 o         1 MOL     -0.577832
     66 H26        -6.3210   -2.0970    0.3200 hn        1 MOL      0.232284
     67 H27        -6.7240   -4.9860    0.4850 h1        1 MOL      0.177063
     68 H28        -6.8650   -3.6690    1.7640 h1        1 MOL      0.177063
     69 N8         -3.8420   -4.0150    1.1240 n         1 MOL     -0.088233
     70 C22        -2.4650   -4.5230    1.4090 c3        1 MOL     -0.485347
     71 C23        -1.4840   -3.4000    1.5310 c         1 MOL      0.713202
     72 O13        -1.7800   -2.2440    1.0830 o         1 MOL     -0.577536
     73 C24        -2.0320   -5.4540    0.2440 c3        1 MOL      0.575938
     74 C25        -2.9560   -6.6410    0.1630 c3        1 MOL     -0.447426
     75 O14        -2.0980   -4.7870   -1.0090 oh        1 MOL     -0.591484
     76 H29        -3.8680   -3.3370    0.3740 hn        1 MOL      0.228925
     77 H30        -2.5010   -5.1300    2.3180 h1        1 MOL      0.164581
     78 H31        -1.0140   -5.8290    0.3040 h1        1 MOL     -0.046204
     79 H32        -1.9080   -3.8730   -0.7740 ho        1 MOL      0.381297
     80 H33        -3.1310   -6.9820    1.1860 hc        1 MOL      0.110646
     81 H34        -3.9270   -6.4540   -0.2950 hc        1 MOL      0.110646
     82 H35        -2.5810   -7.4860   -0.4150 hc        1 MOL      0.110646
     83 N9         -0.3320   -3.7350    2.0720 n         1 MOL     -0.678284
     84 C26         0.8780   -2.8940    2.0800 c3        1 MOL     -0.035178
     85 C27         1.5330   -3.0810    0.6840 c         1 MOL      0.582295
     86 O15         1.8570   -4.1410    0.1850 o         1 MOL     -0.584232
     87 C28         1.8960   -3.1990    3.2480 c3        1 MOL      0.182336
     88 C29         1.1190   -3.1310    4.6050 c3        1 MOL      0.065015
     89 C30         3.0200   -2.0600    3.0820 c3        1 MOL     -0.225311
     90 C31         1.8350   -3.1060    5.9220 c3        1 MOL     -0.312084
     91 H36        -0.2070   -4.7000    2.3470 hn        1 MOL      0.341244
     92 H37         0.4830   -1.8770    2.1320 h1        1 MOL      0.093814
     93 H38         2.3370   -4.1830    3.0950 hc        1 MOL     -0.013419
     94 H39         0.4430   -3.9790    4.6250 hc        1 MOL      0.016576
     95 H40         0.5710   -2.1910    4.6130 hc        1 MOL      0.016576
     96 H41         3.6910   -2.1150    3.9490 hc        1 MOL      0.036399
     97 H42         3.6890   -2.1020    2.2260 hc        1 MOL      0.036399
     98 H43         2.6120   -1.0430    3.0810 hc        1 MOL      0.036399
     99 H44         1.0620   -3.2230    6.6900 hc        1 MOL      0.071742
    100 H45         2.6210   -3.8610    5.9070 hc        1 MOL      0.071742
    101 H46         2.3330   -2.1470    6.0240 hc        1 MOL      0.071742
    102 N10         1.7710   -1.9370    0.0810 n         1 MOL     -0.194154
    103 C32         2.5930   -1.7750   -1.1270 c3        1 MOL      0.025936
    104 C33         4.0430   -1.3580   -0.8490 c         1 MOL      0.446658
    105 O16         4.3780   -0.7690    0.1980 o         1 MOL     -0.319606
    106 C34         1.8940   -0.8020   -2.0760 c3        1 MOL     -0.315386
    107 C35         0.5240   -1.0840   -2.4170 c         1 MOL      0.859271
    108 O17        -0.4710   -0.6780   -1.7130 o         1 MOL     -0.698598
    109 O18         0.4050   -1.8560   -3.3890 o         1 MOL     -0.698598
    110 H47         1.3600   -1.0770    0.4170 hn        1 MOL      0.056276
    111 H48         2.6750   -2.7360   -1.6530 h1        1 MOL      0.076419
    112 H49         2.3900   -0.8620   -3.0410 hc        1 MOL      0.068309
    113 H50         1.9290    0.2260   -1.7200 hc        1 MOL      0.068309
    114 N11         4.9970   -1.5540   -1.7840 n         1 MOL     -0.651510
    115 C36         6.4130   -1.3110   -1.5320 c3        1 MOL      0.463599
    116 C37         6.6600    0.1970   -1.1030 c         1 MOL      0.278253
    117 O19         7.1980    0.3860    0.0250 o         1 MOL     -0.516134
    118 C38         7.2660   -1.8420   -2.6800 c3        1 MOL     -0.235480
    119 C39         8.7840   -1.7740   -2.4650 ca        1 MOL      0.149252
    120 C40         9.5840   -0.8930   -3.1810 ca        1 MOL     -0.218450
    121 C41         9.4170   -2.5040   -1.4170 ca        1 MOL     -0.218450
    122 C42        10.9460   -0.7740   -2.9030 ca        1 MOL     -0.038022
    123 C43        10.7920   -2.3590   -1.1880 ca        1 MOL     -0.038022
    124 C44        11.5970   -1.5290   -1.9120 ca        1 MOL     -0.197715
    125 H51         4.7120   -2.0360   -2.6290 hn        1 MOL      0.334052
    126 H52         6.6840   -1.8980   -0.6560 h1        1 MOL      0.017183
    127 H53         6.9960   -1.2790   -3.5770 hc        1 MOL      0.062731
    128 H54         7.0650   -2.8960   -2.8350 hc        1 MOL      0.062731
    129 H55         9.1940   -0.2190   -3.9320 ha        1 MOL      0.129227
    130 H56         8.8940   -3.2520   -0.8470 ha        1 MOL      0.129227
    131 H57        11.4760    0.0410   -3.3700 ha        1 MOL      0.088151
    132 H58        11.2160   -2.9320   -0.3740 ha        1 MOL      0.088151
    133 H59        12.6060   -1.3080   -1.5930 ha        1 MOL      0.131216
    134 N12         6.1550    1.2530   -1.7630 n         1 MOL     -0.121055
    135 C45         6.2600    2.6680   -1.2920 c3        1 MOL      0.112656
    136 C46         5.6600    2.8960    0.1590 c         1 MOL      0.238385
    137 O20         6.1170    3.7790    0.8920 o         1 MOL     -0.486941
    138 C47         5.4910    3.5100   -2.2310 c3        1 MOL     -0.179022
    139 C48         5.6770    2.6900   -3.5010 c3        1 MOL      0.112182
    140 C49         5.5850    1.2540   -3.1230 c3        1 MOL     -0.052527
    141 H60         7.2880    3.0280   -1.2410 h1        1 MOL      0.066704
    142 H61         4.4060    3.5810   -2.1480 hc        1 MOL      0.077487
    143 H62         5.9850    4.4820   -2.3050 hc        1 MOL      0.077487
    144 H63         4.9930    2.9530   -4.3130 hc        1 MOL     -0.016333
    145 H64         6.6850    2.8350   -3.8890 hc        1 MOL     -0.016333
    146 H65         4.5570    0.8850   -3.0550 h1        1 MOL      0.041572
    147 H66         6.0970    0.6110   -3.8360 h1        1 MOL      0.041572
    148 N13         4.6180    2.1430    0.5410 n         1 MOL     -0.088638
    149 C50         3.9500    2.1210    1.8500 c3        1 MOL     -0.022824
    150 C51         4.7780    1.4140    2.9100 c         1 MOL      0.415133
    151 O21         4.8690    1.9420    4.0100 o         1 MOL     -0.552493
    152 C52         2.4850    1.5820    1.6610 c3        1 MOL     -0.142687
    153 C53         1.6770    2.1290    0.4000 c3        1 MOL     -0.027022
    154 C54         0.3570    1.4220    0.2970 c         1 MOL      0.671987
    155 O22        -0.6010    2.0210   -0.1980 o         1 MOL     -0.701152
    156 O23         0.0790    0.3870    0.9620 o         1 MOL     -0.701152
    157 H67         4.4600    1.2720    0.0580 hn        1 MOL      0.153015
    158 H68         3.8530    3.1490    2.2010 h1        1 MOL      0.095100
    159 H69         1.8500    1.7350    2.5350 hc        1 MOL      0.057110
    160 H70         2.6180    0.5160    1.5060 hc        1 MOL      0.057110
    161 H71         2.3020    1.9820   -0.4900 hc        1 MOL      0.023227
    162 H72         1.4460    3.1940    0.4180 hc        1 MOL      0.023227
    163 N14         5.5450    0.3620    2.5360 n         1 MOL      0.023014
    164 C55         6.5740   -0.2560    3.3460 c3        1 MOL     -0.129643
    165 H73         7.3520    0.4750    3.5650 h1        1 MOL      0.046870
    166 H74         6.1380   -0.6130    4.2790 h1        1 MOL      0.046870
    167 H75         7.0080   -1.0960    2.8030 h1        1 MOL      0.046870
    168 H76         5.3100   -0.0990    1.6670 hn        1 MOL      0.068305
    169 Ca1        -2.3080   -0.0260   -0.0160 Ca        1 MOL      1.662758
    170 O24        -1.8380   -0.1250    2.7710 oh        1 MOL     -0.716551
    171 H77        -1.7200    0.0130    3.7090 ho        1 MOL      0.355080
    172 H78        -0.9930    0.1310    2.3850 ho        1 MOL      0.355080
    173 O25        -4.6470   -0.9130    1.3350 oh        1 MOL     -0.716551
    174 H79        -4.4010   -1.1340    2.2310 ho        1 MOL      0.355080
    175 H80        -5.0540   -0.0510    1.4020 ho        1 MOL      0.355080
@<TRIPOS>BOND
     1    1    2 1   
     2    1    4 1   
     3    1    5 1   
     4    1    6 1   
     5    2    3 2   
     6    2    7 1   
     7    7    8 1   
     8    7   15 1   
     9    8    9 1   
    10    8   11 1   
    11    8   16 1   
    12    9   10 2   
    13    9   19 1   
    14   11   12 1   
    15   11   17 1   
    16   11   18 1   
    17   12   13 1   
    18   12   14 1   
    19   19   20 1   
    20   19   24 1   
    21   20   21 1   
    22   20   23 1   
    23   20   25 1   
    24   21   22 2   
    25   21   29 1   
    26   23   26 1   
    27   23   27 1   
    28   23   28 1   
    29   29   30 1   
    30   29   37 1   
    31   30   31 1   
    32   30   33 1   
    33   30   38 1   
    34   31   32 2   
    35   31   41 1   
    36   33   34 1   
    37   33   39 1   
    38   33   40 1   
    39   34   35 1   
    40   34   36 1   
    41   41   42 1   
    42   41   45 1   
    43   42   43 1   
    44   42   46 1   
    45   42   47 1   
    46   43   44 2   
    47   43   48 1   
    48   48   49 1   
    49   48   56 1   
    50   49   50 1   
    51   49   52 1   
    52   49   57 1   
    53   50   51 2   
    54   50   62 1   
    55   52   53 1   
    56   52   58 1   
    57   52   59 1   
    58   53   54 1   
    59   53   55 2   
    60   54   60 1   
    61   54   61 1   
    62   62   63 1   
    63   62   66 1   
    64   63   64 1   
    65   63   67 1   
    66   63   68 1   
    67   64   65 2   
    68   64   69 1   
    69   69   70 1   
    70   69   76 1   
    71   70   71 1   
    72   70   73 1   
    73   70   77 1   
    74   71   72 2   
    75   71   83 1   
    76   73   74 1   
    77   73   75 1   
    78   73   78 1   
    79   74   80 1   
    80   74   81 1   
    81   74   82 1   
    82   75   79 1   
    83   83   84 1   
    84   83   91 1   
    85   84   85 1   
    86   84   87 1   
    87   84   92 1   
    88   85   86 2   
    89   85  102 1   
    90   87   88 1   
    91   87   89 1   
    92   87   93 1   
    93   88   90 1   
    94   88   94 1   
    95   88   95 1   
    96   89   96 1   
    97   89   97 1   
    98   89   98 1   
    99   90   99 1   
   100   90  100 1   
   101   90  101 1   
   102  102  103 1   
   103  102  110 1   
   104  103  104 1   
   105  103  106 1   
   106  103  111 1   
   107  104  105 2   
   108  104  114 1   
   109  106  107 1   
   110  106  112 1   
   111  106  113 1   
   112  107  108 1   
   113  107  109 1   
   114  114  115 1   
   115  114  125 1   
   116  115  116 1   
   117  115  118 1   
   118  115  126 1   
   119  116  117 2   
   120  116  134 1   
   121  118  119 1   
   122  118  127 1   
   123  118  128 1   
   124  119  120 ar  
   125  119  121 ar  
   126  120  122 ar  
   127  120  129 1   
   128  121  123 ar  
   129  121  130 1   
   130  122  124 ar  
   131  122  131 1   
   132  123  124 ar  
   133  123  132 1   
   134  124  133 1   
   135  134  135 1   
   136  134  140 1   
   137  135  136 1   
   138  135  138 1   
   139  135  141 1   
   140  136  137 2   
   141  136  148 1   
   142  138  139 1   
   143  138  142 1   
   144  138  143 1   
   145  139  140 1   
   146  139  144 1   
   147  139  145 1   
   148  140  146 1   
   149  140  147 1   
   150  148  149 1   
   151  148  157 1   
   152  149  150 1   
   153  149  152 1   
   154  149  158 1   
   155  150  151 2   
   156  150  163 1   
   157  152  153 1   
   158  152  159 1   
   159  152  160 1   
   160  153  154 1   
   161  153  161 1   
   162  153  162 1   
   163  154  155 1   
   164  154  156 1   
   165  163  164 1   
   166  163  168 1   
   167  164  165 1   
   168  164  166 1   
   169  164  167 1   
   170  170  171 1   
   171  170  172 1   
   172  173  174 1   
   173  173  175 1   
@<TRIPOS>SUBSTRUCTURE
     1 MOL         1 TEMP              0 ****  ****    0 ROOT
