@<TRIPOS>MOLECULE
MOL
  179   176     1     0     0
SMALL
resp


@<TRIPOS>ATOM
      1 C1         -0.6250   -4.3080    6.2860 c3        1 MOL     -0.330324
      2 C2         -0.4790   -4.0320    4.7570 c         1 MOL      0.729955
      3 O1         -1.3560   -4.3100    3.9460 o         1 MOL     -0.572893
      4 H1         -0.1400   -5.2530    6.5330 hc        1 MOL      0.079974
      5 H2         -0.1540   -3.5010    6.8480 hc        1 MOL      0.079974
      6 H3         -1.6820   -4.3640    6.5470 hc        1 MOL      0.079974
      7 N1          0.6480   -3.3800    4.4380 n         1 MOL     -0.579247
      8 C3          0.8980   -2.9050    3.0790 c3        1 MOL     -0.033744
      9 C4          0.9230   -4.0860    2.0370 c         1 MOL      0.714987
     10 O2          1.4750   -5.1810    2.2660 o         1 MOL     -0.564098
     11 C5          2.2270   -2.1050    3.1130 c3        1 MOL     -0.334328
     12 C6          2.7870   -1.5180    1.7730 c         1 MOL      0.824798
     13 O3          3.8120   -0.8100    1.8680 o         1 MOL     -0.727229
     14 O4          2.2110   -1.7900    0.6730 o         1 MOL     -0.727229
     15 H4          1.3150   -3.0920    5.1290 hn        1 MOL      0.338147
     16 H5          0.1020   -2.2120    2.7900 h1        1 MOL      0.056732
     17 H6          2.9860   -2.7780    3.5240 hc        1 MOL      0.099667
     18 H7          2.0050   -1.3480    3.8570 hc        1 MOL      0.099667
     19 N2          0.1900   -3.8350    0.8610 n         1 MOL     -0.551313
     20 C7          0.0350   -5.0410   -0.1000 c3        1 MOL     -0.093416
     21 C8          1.3520   -5.5420   -0.7640 c         1 MOL      0.584150
     22 O5          1.4290   -6.6680   -1.2710 o         1 MOL     -0.583431
     23 C9         -1.0320   -4.7060   -1.1100 c3        1 MOL     -0.030545
     24 C10        -1.7110   -5.9520   -1.6740 c3        1 MOL     -0.092979
     25 C11        -2.9810   -5.7260   -2.5020 c3        1 MOL     -0.027079
     26 C12        -4.2470   -5.5030   -1.6450 c3        1 MOL      0.110446
     27 N3         -5.4120   -5.4630   -2.6270 n4        1 MOL     -0.556512
     28 H8         -0.2440   -2.9350    0.7150 hn        1 MOL      0.334080
     29 H9         -0.2300   -5.8390    0.5920 h1        1 MOL      0.114406
     30 H10        -0.5380   -4.1840   -1.9300 hc        1 MOL      0.078326
     31 H11        -1.7620   -4.0550   -0.6200 hc        1 MOL      0.078326
     32 H12        -1.9350   -6.7260   -0.9330 hc        1 MOL      0.051110
     33 H13        -1.0260   -6.4820   -2.3400 hc        1 MOL      0.051110
     34 H14        -3.1100   -6.6150   -3.1300 hc        1 MOL      0.028407
     35 H15        -2.8150   -4.9220   -3.2070 hc        1 MOL      0.028407
     36 H16        -4.1930   -4.5860   -1.0630 hx        1 MOL      0.087149
     37 H17        -4.4140   -6.3190   -0.9470 hx        1 MOL      0.087149
     38 H18        -6.2730   -5.3420   -2.1130 hn        1 MOL      0.369730
     39 H19        -5.4240   -4.6710   -3.2440 hn        1 MOL      0.369730
     40 H20        -5.4590   -6.3570   -3.1050 hn        1 MOL      0.369730
     41 N4          2.3460   -4.6890   -0.7290 n         1 MOL     -0.332597
     42 C13         3.5560   -4.8190   -1.5040 c3        1 MOL      0.042099
     43 C14         4.8700   -4.3530   -0.8320 c         1 MOL      0.419545
     44 O6          5.9720   -4.6340   -1.3760 o         1 MOL     -0.528519
     45 C15         3.3800   -4.0830   -2.8440 c3        1 MOL     -0.141481
     46 C16         2.7420   -2.6560   -2.7360 c         1 MOL      0.636148
     47 O7          3.4400   -1.7250   -2.4340 o         1 MOL     -0.716522
     48 O8          1.4860   -2.5130   -2.6520 o         1 MOL     -0.716522
     49 H21         2.2270   -3.8120   -0.2460 hn        1 MOL      0.259616
     50 H22         3.6870   -5.8490   -1.8310 h1        1 MOL      0.111618
     51 H23         2.6810   -4.6570   -3.4650 hc        1 MOL      0.041033
     52 H24         4.3840   -4.0720   -3.2680 hc        1 MOL      0.041033
     53 N5          4.8120   -3.6140    0.2520 n         1 MOL     -0.307270
     54 C17         6.0730   -3.0880    0.7710 c3        1 MOL      0.037078
     55 C18         6.7380   -1.8840    0.0580 c         1 MOL      0.356187
     56 O9          7.8990   -1.5590    0.3040 o         1 MOL     -0.547518
     57 H25         3.8990   -3.3030    0.5250 hn        1 MOL      0.184652
     58 H26         6.8370   -3.8430    0.9900 h1        1 MOL      0.076335
     59 H27         5.9030   -2.8310    1.8150 h1        1 MOL      0.076335
     60 N6          5.9690   -1.1220   -0.6590 n         1 MOL     -0.074620
     61 C19         6.3860    0.1690   -1.2110 c3        1 MOL     -0.026268
     62 C20         6.4750    1.3420   -0.1570 c         1 MOL      0.217167
     63 O10         7.0330    2.4100   -0.4480 o         1 MOL     -0.423527
     64 C21         5.6740    0.3960   -2.5250 c3        1 MOL     -0.148159
     65 C22         4.5030    1.3190   -2.5930 c         1 MOL      0.573279
     66 N7          4.5410    2.3160   -3.4490 n         1 MOL     -0.608176
     67 O11         3.5690    1.1780   -1.7920 o         1 MOL     -0.703256
     68 H28         5.0590   -1.4980   -0.8860 hn        1 MOL      0.199235
     69 H29         7.3910    0.1340   -1.6260 h1        1 MOL      0.113445
     70 H30         5.4410   -0.5410   -3.0360 hc        1 MOL      0.072458
     71 H31         6.3490    0.8200   -3.2640 hc        1 MOL      0.072458
     72 H32         5.3420    2.3920   -4.0640 hn        1 MOL      0.327479
     73 H33         3.7940    2.9960   -3.4920 hn        1 MOL      0.327479
     74 N8          5.8640    1.0910    0.9870 n         1 MOL      0.024248
     75 C23         5.7390    2.0430    2.1490 c3        1 MOL     -0.343766
     76 C24         4.5040    2.9250    2.0560 c         1 MOL      0.750667
     77 O12         4.4660    3.8580    2.8710 o         1 MOL     -0.597394
     78 H34         5.4210    0.1770    1.0260 hn        1 MOL      0.155131
     79 H35         6.6520    2.6420    2.1330 h1        1 MOL      0.143544
     80 H36         5.7910    1.3860    3.0130 h1        1 MOL      0.143544
     81 N9          3.5590    2.6360    1.1800 n         1 MOL     -0.501332
     82 C25         2.4370    3.4930    0.9080 c3        1 MOL      0.147268
     83 C26         1.2230    2.5690    0.7550 c         1 MOL      0.715397
     84 O13         1.3230    1.4610    0.2240 o         1 MOL     -0.721547
     85 C27         2.7570    4.3350   -0.3390 c3        1 MOL     -0.052743
     86 C28         3.9980    5.1550   -0.2410 ca        1 MOL     -0.009588
     87 C29         5.1940    4.7010   -0.8970 ca        1 MOL     -0.152846
     88 C30         3.8930    6.3450    0.4250 ca        1 MOL     -0.152846
     89 C31         6.3080    5.5150   -0.6950 ca        1 MOL     -0.225398
     90 C32         5.0080    7.1850    0.5500 ca        1 MOL     -0.225398
     91 C33         6.2060    6.7760   -0.0250 ca        1 MOL      0.355889
     92 O14         7.2850    7.6350   -0.0280 oh        1 MOL     -0.528342
     93 H37         3.5950    1.7870    0.6390 hn        1 MOL      0.298473
     94 H38         2.1000    4.1240    1.7360 h1        1 MOL      0.011807
     95 H39         1.8850    4.9360   -0.6010 hc        1 MOL      0.018312
     96 H40         2.8810    3.7220   -1.2260 hc        1 MOL      0.018312
     97 H41         5.1460    3.8300   -1.5340 ha        1 MOL      0.124952
     98 H42         2.9670    6.6230    0.9070 ha        1 MOL      0.124952
     99 H43         7.2090    5.3300   -1.2650 ha        1 MOL      0.128514
    100 H44         4.8860    8.1390    1.0410 ha        1 MOL      0.128514
    101 H45         7.2850    8.2490    0.7060 ho        1 MOL      0.373801
    102 N10         0.1600    3.0680    1.3510 n         1 MOL     -0.607829
    103 C34        -1.1870    2.4770    1.3730 c3        1 MOL      0.061584
    104 C35        -2.2180    3.5750    0.8600 c         1 MOL      0.382074
    105 O15        -2.4780    4.6540    1.4010 o         1 MOL     -0.515258
    106 C36        -1.4780    1.9090    2.7930 c3        1 MOL      0.031364
    107 C37        -0.5730    0.6780    3.0790 c3        1 MOL      0.107174
    108 C38        -3.0040    1.7750    3.0550 c3        1 MOL     -0.172704
    109 C39        -1.0670   -0.1380    4.3420 c3        1 MOL     -0.224852
    110 H46         0.2270    3.8650    1.9710 hn        1 MOL      0.347540
    111 H47        -1.2840    1.6870    0.6300 h1        1 MOL      0.103900
    112 H48        -1.1350    2.6190    3.5500 hc        1 MOL      0.020283
    113 H49         0.4610    0.9940    3.1880 hc        1 MOL      0.020351
    114 H50        -0.7690    0.0790    2.1840 hc        1 MOL      0.020351
    115 H51        -3.2120    1.4660    4.0730 hc        1 MOL      0.041092
    116 H52        -3.6370    2.6090    2.7600 hc        1 MOL      0.041092
    117 H53        -3.4420    0.9740    2.4600 hc        1 MOL      0.041092
    118 H54        -0.2360   -0.7460    4.6900 hc        1 MOL      0.054504
    119 H55        -1.2950    0.6310    5.0810 hc        1 MOL      0.054504
    120 H56        -1.9860   -0.6880    4.1680 hc        1 MOL      0.054504
    121 N11        -3.0030    3.1730   -0.1380 n         1 MOL     -0.178684
    122 C40        -4.2060    3.9280   -0.7320 c3        1 MOL      0.088177
    123 C41        -5.4240    3.5540   -0.0040 c         1 MOL      0.331790
    124 O16        -5.5680    2.7230    0.8470 o         1 MOL     -0.314804
    125 C42        -4.2780    3.5010   -2.1540 c3        1 MOL     -0.248020
    126 O17        -4.5820    2.0740   -2.2290 oh        1 MOL     -0.316684
    127 H57        -2.7660    2.3170   -0.6040 hn        1 MOL      0.128994
    128 H58        -4.0330    4.9980   -0.7560 h1        1 MOL      0.092342
    129 H59        -3.2690    3.6870   -2.5270 h1        1 MOL      0.119956
    130 H60        -5.1190    4.0090   -2.6250 h1        1 MOL      0.119956
    131 H61        -4.1000    1.6910   -2.9720 ho        1 MOL      0.355933
    132 N12        -6.4840    4.2290   -0.4520 n         1 MOL     -0.317467
    133 C43        -7.8970    4.0200   -0.1000 c3        1 MOL      0.020657
    134 C44        -8.2890    2.5910   -0.4870 c         1 MOL      0.564844
    135 O18        -8.9020    1.8420    0.3050 o         1 MOL     -0.518578
    136 C45        -8.8370    5.2260   -0.4800 c3        1 MOL     -0.201043
    137 H62        -6.2040    5.0090   -1.0280 hn        1 MOL      0.257639
    138 H63        -7.8990    4.1470    0.9840 h1        1 MOL      0.090485
    139 H64        -9.7510    5.1640    0.1140 hc        1 MOL      0.075942
    140 H65        -8.2610    6.1480   -0.3940 hc        1 MOL      0.075942
    141 H66        -9.1710    5.0940   -1.5030 hc        1 MOL      0.075942
    142 N13        -7.6970    2.0020   -1.6110 n         1 MOL     -0.526772
    143 C46        -8.0510    0.6290   -1.9330 c3        1 MOL      0.310842
    144 C47        -7.2220   -0.3070   -1.0230 c         1 MOL      0.281159
    145 O19        -7.8440   -1.1680   -0.4970 o         1 MOL     -0.513795
    146 C48        -7.9100    0.4050   -3.4270 c3        1 MOL     -0.377003
    147 H67        -6.8040    2.4070   -1.8600 hn        1 MOL      0.214700
    148 H68        -9.1120    0.5050   -1.6880 h1        1 MOL      0.086462
    149 H69        -8.7850    0.9140   -3.8190 hc        1 MOL      0.090727
    150 H70        -6.9560    0.8800   -3.6570 hc        1 MOL      0.090727
    151 H71        -7.8250   -0.6530   -3.6920 hc        1 MOL      0.090727
    152 N14        -5.9280   -0.2020   -0.7540 n         1 MOL     -0.068395
    153 C49        -5.2420   -1.1440    0.1800 c3        1 MOL     -0.162259
    154 C50        -5.7810   -1.0410    1.5780 c         1 MOL      0.328745
    155 O20        -5.8580   -2.1610    2.1950 o         1 MOL     -0.553031
    156 C51        -3.7430   -0.8930    0.1400 c3        1 MOL     -0.007482
    157 C52        -3.0040   -1.2170   -1.1520 c3        1 MOL     -0.040675
    158 C53        -1.5770   -0.7460   -1.0530 c         1 MOL      0.771556
    159 O21        -1.2430    0.1940   -1.8010 o         1 MOL     -0.781651
    160 O22        -0.7600   -1.4860   -0.5500 o         1 MOL     -0.781651
    161 H72        -5.4000    0.4570   -1.3150 hn        1 MOL      0.075818
    162 H73        -5.4110   -2.1760   -0.1170 h1        1 MOL      0.113973
    163 H74        -3.2170   -1.4630    0.9040 hc        1 MOL      0.061982
    164 H75        -3.5240    0.1460    0.3970 hc        1 MOL      0.061982
    165 H76        -3.4590   -0.7770   -2.0400 hc        1 MOL     -0.038241
    166 H77        -3.0740   -2.3020   -1.2340 hc        1 MOL     -0.038241
    167 N15        -6.1520    0.1240    2.0690 n         1 MOL      0.230662
    168 C54        -6.5730    0.3810    3.3620 c3        1 MOL     -0.278623
    169 H78        -6.0380   -0.2710    4.0540 h1        1 MOL      0.089526
    170 H79        -6.3670    1.4220    3.6130 h1        1 MOL      0.089526
    171 H80        -7.6430    0.1930    3.4410 h1        1 MOL      0.089526
    172 H81        -6.1090    0.9470    1.4830 hn        1 MOL      0.003138
    173 Ca1         1.3090   -0.1680   -1.7240 Ca        1 MOL      1.845828
    174 O23         0.5710    2.1980   -3.0360 oh        1 MOL     -0.811920
    175 H82         0.3260    2.0600   -3.9550 ho        1 MOL      0.398958
    176 H83         0.1620    3.0440   -2.8120 ho        1 MOL      0.398958
    177 O24         0.9420   -0.3400   -4.4810 oh        1 MOL     -0.811920
    178 H84         0.7500   -1.2370   -4.7510 ho        1 MOL      0.398958
    179 H85         1.4170    0.0300   -5.2250 ho        1 MOL      0.398958
@<TRIPOS>BOND
     1    1    2 1   
     2    1    4 1   
     3    1    5 1   
     4    1    6 1   
     5    2    3 2   
     6    2    7 1   
     7    7    8 1   
     8    7   15 1   
     9    8    9 1   
    10    8   11 1   
    11    8   16 1   
    12    9   10 2   
    13    9   19 1   
    14   11   12 1   
    15   11   17 1   
    16   11   18 1   
    17   12   13 1   
    18   12   14 1   
    19   19   20 1   
    20   19   28 1   
    21   20   21 1   
    22   20   23 1   
    23   20   29 1   
    24   21   22 2   
    25   21   41 1   
    26   23   24 1   
    27   23   30 1   
    28   23   31 1   
    29   24   25 1   
    30   24   32 1   
    31   24   33 1   
    32   25   26 1   
    33   25   34 1   
    34   25   35 1   
    35   26   27 1   
    36   26   36 1   
    37   26   37 1   
    38   27   38 1   
    39   27   39 1   
    40   27   40 1   
    41   41   42 1   
    42   41   49 1   
    43   42   43 1   
    44   42   45 1   
    45   42   50 1   
    46   43   44 2   
    47   43   53 1   
    48   45   46 1   
    49   45   51 1   
    50   45   52 1   
    51   46   47 1   
    52   46   48 1   
    53   53   54 1   
    54   53   57 1   
    55   54   55 1   
    56   54   58 1   
    57   54   59 1   
    58   55   56 2   
    59   55   60 1   
    60   60   61 1   
    61   60   68 1   
    62   61   62 1   
    63   61   64 1   
    64   61   69 1   
    65   62   63 2   
    66   62   74 1   
    67   64   65 1   
    68   64   70 1   
    69   64   71 1   
    70   65   66 1   
    71   65   67 2   
    72   66   72 1   
    73   66   73 1   
    74   74   75 1   
    75   74   78 1   
    76   75   76 1   
    77   75   79 1   
    78   75   80 1   
    79   76   77 2   
    80   76   81 1   
    81   81   82 1   
    82   81   93 1   
    83   82   83 1   
    84   82   85 1   
    85   82   94 1   
    86   83   84 2   
    87   83  102 1   
    88   85   86 1   
    89   85   95 1   
    90   85   96 1   
    91   86   87 ar  
    92   86   88 ar  
    93   87   89 ar  
    94   87   97 1   
    95   88   90 ar  
    96   88   98 1   
    97   89   91 ar  
    98   89   99 1   
    99   90   91 ar  
   100   90  100 1   
   101   91   92 1   
   102   92  101 1   
   103  102  103 1   
   104  102  110 1   
   105  103  104 1   
   106  103  106 1   
   107  103  111 1   
   108  104  105 2   
   109  104  121 1   
   110  106  107 1   
   111  106  108 1   
   112  106  112 1   
   113  107  109 1   
   114  107  113 1   
   115  107  114 1   
   116  108  115 1   
   117  108  116 1   
   118  108  117 1   
   119  109  118 1   
   120  109  119 1   
   121  109  120 1   
   122  121  122 1   
   123  121  127 1   
   124  122  123 1   
   125  122  125 1   
   126  122  128 1   
   127  123  124 2   
   128  123  132 1   
   129  125  126 1   
   130  125  129 1   
   131  125  130 1   
   132  126  131 1   
   133  132  133 1   
   134  132  137 1   
   135  133  134 1   
   136  133  136 1   
   137  133  138 1   
   138  134  135 2   
   139  134  142 1   
   140  136  139 1   
   141  136  140 1   
   142  136  141 1   
   143  142  143 1   
   144  142  147 1   
   145  143  144 1   
   146  143  146 1   
   147  143  148 1   
   148  144  145 2   
   149  144  152 1   
   150  146  149 1   
   151  146  150 1   
   152  146  151 1   
   153  152  153 1   
   154  152  161 1   
   155  153  154 1   
   156  153  156 1   
   157  153  162 1   
   158  154  155 2   
   159  154  167 1   
   160  156  157 1   
   161  156  163 1   
   162  156  164 1   
   163  157  158 1   
   164  157  165 1   
   165  157  166 1   
   166  158  159 1   
   167  158  160 1   
   168  167  168 1   
   169  167  172 1   
   170  168  169 1   
   171  168  170 1   
   172  168  171 1   
   173  174  175 1   
   174  174  176 1   
   175  177  178 1   
   176  177  179 1   
@<TRIPOS>SUBSTRUCTURE
     1 MOL         1 TEMP              0 ****  ****    0 ROOT
