@<TRIPOS>MOLECULE
MOL
  179   176     1     0     0
SMALL
resp


@<TRIPOS>ATOM
      1 C1         -0.6430    5.2910    4.7500 c3        1 MOL     -0.345954
      2 C2         -0.6240    4.3060    3.5800 c         1 MOL      0.655254
      3 O1          0.4230    4.0090    3.0110 o         1 MOL     -0.568590
      4 H1          0.2580    5.9040    4.7220 hc        1 MOL      0.084228
      5 H2         -1.5210    5.9330    4.6710 hc        1 MOL      0.084228
      6 H3         -0.6780    4.7400    5.6890 hc        1 MOL      0.084228
      7 N1         -1.7650    3.7660    3.2180 n         1 MOL     -0.470491
      8 C3         -2.1910    2.9990    2.0490 c3        1 MOL      0.013183
      9 C4         -2.9260    3.8700    1.0130 c         1 MOL      0.549613
     10 O2         -4.1580    3.7940    0.8740 o         1 MOL     -0.451261
     11 C5         -3.1420    1.9250    2.5500 c3        1 MOL     -0.042546
     12 C6         -3.5560    0.9280    1.4760 c         1 MOL      0.536585
     13 O3         -4.5710    0.2710    1.7800 o         1 MOL     -0.610978
     14 O4         -2.8870    0.7540    0.3770 o         1 MOL     -0.610978
     15 H4         -2.4710    3.9730    3.9190 hn        1 MOL      0.266056
     16 H5         -1.3530    2.5010    1.5610 h1        1 MOL      0.056875
     17 H6         -3.9730    2.3790    3.0790 hc        1 MOL      0.039914
     18 H7         -2.6490    1.3550    3.3360 hc        1 MOL      0.039914
     19 N2         -2.1490    4.7150    0.3140 n         1 MOL     -0.564825
     20 C7         -2.6850    5.7340   -0.5620 c3        1 MOL      0.122575
     21 C8         -3.6490    5.2990   -1.6030 c         1 MOL      0.461599
     22 O5         -4.6610    5.9620   -1.7840 o         1 MOL     -0.532797
     23 C9         -1.4880    6.4810   -1.1900 c3        1 MOL     -0.411689
     24 C10        -0.5190    7.1770   -0.1720 c3        1 MOL      0.061163
     25 C11        -1.1520    8.3270    0.7160 c3        1 MOL     -0.142359
     26 C12        -0.2360    8.8570    1.7630 c3        1 MOL      0.174707
     27 N3         -0.8060   10.0380    2.4630 n4        1 MOL     -0.523721
     28 H8         -1.1450    4.5820    0.2650 hn        1 MOL      0.385987
     29 H9         -3.1980    6.4570    0.0870 h1        1 MOL      0.056633
     30 H10        -1.8610    7.2860   -1.8190 hc        1 MOL      0.156579
     31 H11        -0.9430    5.7340   -1.7720 hc        1 MOL      0.156579
     32 H12         0.3300    7.6400   -0.6950 hc        1 MOL      0.029701
     33 H13        -0.0650    6.5270    0.5750 hc        1 MOL      0.029701
     34 H14        -2.0470    7.9450    1.2110 hc        1 MOL      0.068674
     35 H15        -1.4830    9.1450    0.0710 hc        1 MOL      0.068674
     36 H16         0.7270    9.1380    1.3180 hx        1 MOL      0.050572
     37 H17        -0.0300    8.1120    2.5340 hx        1 MOL      0.050572
     38 H18        -0.0450   10.2000    3.1170 hn        1 MOL      0.371678
     39 H19        -0.9200   10.7640    1.7830 hn        1 MOL      0.371678
     40 H20        -1.6600    9.8160    2.9530 hn        1 MOL      0.371678
     41 N4         -3.4060    4.2060   -2.3550 n         1 MOL     -0.444897
     42 C13        -4.3610    3.5060   -3.1650 c3        1 MOL      0.270916
     43 C14        -5.5530    2.8790   -2.4330 c         1 MOL      0.419713
     44 O6         -6.6120    2.7160   -2.9930 o         1 MOL     -0.550840
     45 C15        -3.7170    2.3850   -3.9510 c3        1 MOL     -0.465264
     46 C16        -2.8850    1.5370   -3.0470 c         1 MOL      0.810791
     47 O7         -1.8990    1.9950   -2.4510 o         1 MOL     -0.735592
     48 O8         -2.9660    0.2540   -3.0210 o         1 MOL     -0.735592
     49 H21        -2.5430    3.7000   -2.2180 hn        1 MOL      0.277886
     50 H22        -4.9090    4.1590   -3.8450 h1        1 MOL      0.027530
     51 H23        -3.1440    2.9060   -4.7270 hc        1 MOL      0.132364
     52 H24        -4.4440    1.7290   -4.4260 hc        1 MOL      0.132364
     53 N5         -5.2550    2.2540   -1.2640 n         1 MOL     -0.053853
     54 C17        -6.2710    1.6540   -0.3650 c3        1 MOL     -0.048981
     55 C18        -6.4540    0.1430   -0.5340 c         1 MOL      0.529608
     56 O9         -7.5130   -0.3480   -0.1630 o         1 MOL     -0.584223
     57 H25        -4.2980    2.2910   -0.9150 hn        1 MOL     -0.005242
     58 H26        -7.2730    2.0170   -0.5570 h1        1 MOL      0.079299
     59 H27        -5.9520    2.0740    0.5850 h1        1 MOL      0.079299
     60 N6         -5.5190   -0.7000   -1.0580 n         1 MOL     -0.139192
     61 C19        -5.8100   -2.1050   -1.4820 c3        1 MOL      0.001966
     62 C20        -5.6060   -2.9790   -0.2590 c         1 MOL      0.259125
     63 O10        -5.8400   -4.1780   -0.3370 o         1 MOL     -0.464724
     64 C21        -5.0330   -2.4930   -2.7580 c3        1 MOL     -0.165715
     65 C22        -3.5240   -2.7170   -2.4480 c         1 MOL      0.558204
     66 N7         -2.8880   -3.7110   -2.9890 n         1 MOL     -0.633448
     67 O11        -2.9430   -2.1030   -1.5390 o         1 MOL     -0.534518
     68 H28        -4.6250   -0.2510   -1.1900 hn        1 MOL     -0.049429
     69 H29        -6.8720   -2.1540   -1.7330 h1        1 MOL      0.126331
     70 H30        -5.0430   -1.6400   -3.4370 hc        1 MOL      0.082179
     71 H31        -5.5190   -3.3560   -3.2200 hc        1 MOL      0.082179
     72 H32        -3.3700   -4.2010   -3.7210 hn        1 MOL      0.331499
     73 H33        -1.9600   -3.8910   -2.6100 hn        1 MOL      0.331499
     74 N8         -5.1490   -2.4640    0.9280 n         1 MOL      0.041395
     75 C23        -5.0870   -3.1800    2.1590 c3        1 MOL     -0.365807
     76 C24        -3.6580   -3.6600    2.3830 c         1 MOL      0.630513
     77 O12        -3.3950   -4.4110    3.2940 o         1 MOL     -0.599089
     78 H34        -4.9600   -1.4740    0.9330 hn        1 MOL      0.175828
     79 H35        -5.8170   -3.9970    2.1620 h1        1 MOL      0.149979
     80 H36        -5.3590   -2.4850    2.9540 h1        1 MOL      0.149979
     81 N9         -2.7030   -3.3640    1.5490 n         1 MOL     -0.366551
     82 C25        -1.3090   -3.8290    1.6140 c3        1 MOL      0.475154
     83 C26        -0.3040   -2.7070    1.4020 c         1 MOL      0.317275
     84 O13        -0.5830   -1.7000    0.6920 o         1 MOL     -0.696650
     85 C27        -1.0650   -4.9670    0.6080 c3        1 MOL     -0.098974
     86 C28        -2.0660   -6.0940    0.7140 ca        1 MOL      0.024545
     87 C29        -3.0470   -6.1780   -0.2810 ca        1 MOL     -0.143813
     88 C30        -2.0120   -7.0850    1.7370 ca        1 MOL     -0.143813
     89 C31        -3.9880   -7.2130   -0.2190 ca        1 MOL     -0.305754
     90 C32        -2.9280   -8.1560    1.7860 ca        1 MOL     -0.305754
     91 C33        -3.9400   -8.2230    0.7470 ca        1 MOL      0.398418
     92 O14        -4.8420   -9.2090    0.8080 oh        1 MOL     -0.508380
     93 H37        -3.0390   -2.8610    0.7440 hn        1 MOL      0.185696
     94 H38        -1.2840   -4.2160    2.6320 h1        1 MOL     -0.050092
     95 H39        -0.0510   -5.3390    0.7880 hc        1 MOL     -0.000090
     96 H40        -1.1740   -4.5270   -0.3750 hc        1 MOL     -0.000090
     97 H41        -3.0690   -5.4310   -1.0650 ha        1 MOL      0.132697
     98 H42        -1.2760   -7.0460    2.5260 ha        1 MOL      0.132697
     99 H43        -4.7920   -7.2940   -0.9480 ha        1 MOL      0.152590
    100 H44        -2.8490   -8.8600    2.6080 ha        1 MOL      0.152590
    101 H45        -4.7450   -9.7010    1.6260 ho        1 MOL      0.377276
    102 N10         0.8370   -2.8500    2.0420 n         1 MOL     -0.373291
    103 C34         2.0190   -1.9110    1.9720 c3        1 MOL     -0.251052
    104 C35         3.2650   -2.7330    1.5430 c         1 MOL      0.713727
    105 O15         3.7020   -3.5330    2.3100 o         1 MOL     -0.560412
    106 C36         2.2510   -1.2150    3.3250 c3        1 MOL      0.117523
    107 C37         1.0520   -0.3550    3.6900 c3        1 MOL     -0.050032
    108 C38         3.4890   -0.2580    3.2310 c3        1 MOL     -0.054757
    109 C39         1.0550    0.3100    5.0670 c3        1 MOL     -0.373997
    110 H46         0.8630   -3.6410    2.6700 hn        1 MOL      0.293647
    111 H47         1.7950   -1.1050    1.2640 h1        1 MOL      0.183627
    112 H48         2.5310   -1.8940    4.1320 hc        1 MOL      0.025402
    113 H49         0.1750   -1.0000    3.6360 hc        1 MOL      0.088772
    114 H50         1.0420    0.4670    2.9720 hc        1 MOL      0.088772
    115 H51         4.3640   -0.7550    2.8260 hc        1 MOL     -0.004617
    116 H52         3.3500    0.5890    2.5600 hc        1 MOL     -0.004617
    117 H53         3.8700    0.0110    4.2150 hc        1 MOL     -0.004617
    118 H54         1.9140    0.9760    5.1970 hc        1 MOL      0.101833
    119 H55         0.1260    0.8780    5.0740 hc        1 MOL      0.101833
    120 H56         1.1390   -0.4930    5.7950 hc        1 MOL      0.101833
    121 N11         3.6830   -2.5650    0.2800 n         1 MOL     -0.487945
    122 C40         4.8840   -3.2110   -0.3140 c3        1 MOL      0.023234
    123 C41         6.2040   -2.4990    0.0580 c         1 MOL      0.448973
    124 O16         6.2270   -1.3870    0.5270 o         1 MOL     -0.348892
    125 C42         4.6950   -3.1800   -1.8410 c3        1 MOL     -0.199014
    126 O17         4.5400   -1.8260   -2.2990 oh        1 MOL     -0.515502
    127 H57         3.2880   -1.7930   -0.2460 hn        1 MOL      0.379354
    128 H58         5.0080   -4.2650   -0.0560 h1        1 MOL      0.085295
    129 H59         3.7290   -3.5990   -2.1100 h1        1 MOL      0.123539
    130 H60         5.5750   -3.6280   -2.3120 h1        1 MOL      0.123539
    131 H61         3.6620   -1.6690   -2.6580 ho        1 MOL      0.406835
    132 N12         7.3120   -3.0650   -0.3840 n         1 MOL     -0.453696
    133 C43         8.6250   -2.3630   -0.1560 c3        1 MOL      0.006698
    134 C44         8.7210   -0.9740   -0.8450 c         1 MOL      0.410852
    135 O18         9.3450   -0.0390   -0.3530 o         1 MOL     -0.501169
    136 C45         9.7170   -3.3290   -0.5750 c3        1 MOL     -0.197499
    137 H62         7.3110   -3.9230   -0.9180 hn        1 MOL      0.292590
    138 H63         8.7950   -2.3610    0.9240 h1        1 MOL      0.123190
    139 H64        10.6550   -2.9160   -0.2160 hc        1 MOL      0.072348
    140 H65         9.7980   -4.3040   -0.1020 hc        1 MOL      0.072348
    141 H66         9.7120   -3.3940   -1.6700 hc        1 MOL      0.072348
    142 N13         8.1200   -0.8370   -2.0090 n         1 MOL     -0.242668
    143 C46         8.0790    0.3240   -2.8140 c3        1 MOL      0.028593
    144 C47         7.3070    1.3690   -2.0290 c         1 MOL      0.385422
    145 O19         7.6450    2.5320   -2.0300 o         1 MOL     -0.517464
    146 C48         7.5240    0.1330   -4.2540 c3        1 MOL     -0.379935
    147 H67         7.4260   -1.5260   -2.2650 hn        1 MOL      0.260954
    148 H68         9.0670    0.8020   -2.8110 h1        1 MOL      0.106377
    149 H69         6.4870   -0.1650   -4.3350 hc        1 MOL      0.113858
    150 H70         7.5120    1.1010   -4.7510 hc        1 MOL      0.113858
    151 H71         8.1720   -0.5890   -4.7540 hc        1 MOL      0.113858
    152 N14         6.1890    1.0360   -1.3750 n         1 MOL      0.031536
    153 C49         5.3470    1.9450   -0.5370 c3        1 MOL     -0.196099
    154 C50         6.1010    2.4050    0.6630 c         1 MOL      0.466961
    155 O20         6.0930    3.5890    0.9810 o         1 MOL     -0.566570
    156 C51         4.1010    1.3090    0.0040 c3        1 MOL      0.090676
    157 C52         3.0910    1.2990   -1.2070 c3        1 MOL     -0.203032
    158 C53         1.8400    0.4670   -0.9830 c         1 MOL      0.932069
    159 O21         1.9300   -0.7250   -1.3260 o         1 MOL     -0.808402
    160 O22         0.8520    1.0200   -0.5400 o         1 MOL     -0.808402
    161 H72         5.8380    0.0940   -1.4810 hn        1 MOL      0.004856
    162 H73         5.1190    2.8270   -1.1310 h1        1 MOL      0.113420
    163 H74         3.6490    1.8320    0.8520 hc        1 MOL      0.036940
    164 H75         4.2650    0.2880    0.3540 hc        1 MOL      0.036940
    165 H76         3.4890    1.0560   -2.1830 hc        1 MOL      0.019432
    166 H77         2.7670    2.3430   -1.2340 hc        1 MOL      0.019432
    167 N15         6.8030    1.5440    1.3540 n         1 MOL     -0.048009
    168 C54         7.6450    2.0070    2.5100 c3        1 MOL     -0.458500
    169 H78         8.3700    2.7430    2.1600 h1        1 MOL      0.157126
    170 H79         7.0050    2.4600    3.2670 h1        1 MOL      0.157126
    171 H80         8.1710    1.1560    2.9410 h1        1 MOL      0.157126
    172 H81         6.8540    0.5590    1.1620 hn        1 MOL      0.131380
    173 Ca1        -1.1190   -0.2650   -1.3280 Ca        1 MOL      1.755527
    174 O23         0.2070   -2.4890   -1.8810 oh        1 MOL     -0.833781
    175 H82         0.5980   -3.2150   -2.3730 ho        1 MOL      0.407630
    176 H83         0.9660   -2.0360   -1.4890 ho        1 MOL      0.407630
    177 O24        -0.0280   -0.0340   -3.9390 oh        1 MOL     -0.833781
    178 H84        -0.3280   -0.5630   -4.6710 ho        1 MOL      0.407630
    179 H85         0.1880    0.8160   -4.3270 ho        1 MOL      0.407630
@<TRIPOS>BOND
     1    1    2 1   
     2    1    4 1   
     3    1    5 1   
     4    1    6 1   
     5    2    3 2   
     6    2    7 1   
     7    7    8 1   
     8    7   15 1   
     9    8    9 1   
    10    8   11 1   
    11    8   16 1   
    12    9   10 2   
    13    9   19 1   
    14   11   12 1   
    15   11   17 1   
    16   11   18 1   
    17   12   13 1   
    18   12   14 1   
    19   19   20 1   
    20   19   28 1   
    21   20   21 1   
    22   20   23 1   
    23   20   29 1   
    24   21   22 2   
    25   21   41 1   
    26   23   24 1   
    27   23   30 1   
    28   23   31 1   
    29   24   25 1   
    30   24   32 1   
    31   24   33 1   
    32   25   26 1   
    33   25   34 1   
    34   25   35 1   
    35   26   27 1   
    36   26   36 1   
    37   26   37 1   
    38   27   38 1   
    39   27   39 1   
    40   27   40 1   
    41   41   42 1   
    42   41   49 1   
    43   42   43 1   
    44   42   45 1   
    45   42   50 1   
    46   43   44 2   
    47   43   53 1   
    48   45   46 1   
    49   45   51 1   
    50   45   52 1   
    51   46   47 1   
    52   46   48 1   
    53   53   54 1   
    54   53   57 1   
    55   54   55 1   
    56   54   58 1   
    57   54   59 1   
    58   55   56 2   
    59   55   60 1   
    60   60   61 1   
    61   60   68 1   
    62   61   62 1   
    63   61   64 1   
    64   61   69 1   
    65   62   63 2   
    66   62   74 1   
    67   64   65 1   
    68   64   70 1   
    69   64   71 1   
    70   65   66 1   
    71   65   67 2   
    72   66   72 1   
    73   66   73 1   
    74   74   75 1   
    75   74   78 1   
    76   75   76 1   
    77   75   79 1   
    78   75   80 1   
    79   76   77 2   
    80   76   81 1   
    81   81   82 1   
    82   81   93 1   
    83   82   83 1   
    84   82   85 1   
    85   82   94 1   
    86   83   84 2   
    87   83  102 1   
    88   85   86 1   
    89   85   95 1   
    90   85   96 1   
    91   86   87 ar  
    92   86   88 ar  
    93   87   89 ar  
    94   87   97 1   
    95   88   90 ar  
    96   88   98 1   
    97   89   91 ar  
    98   89   99 1   
    99   90   91 ar  
   100   90  100 1   
   101   91   92 1   
   102   92  101 1   
   103  102  103 1   
   104  102  110 1   
   105  103  104 1   
   106  103  106 1   
   107  103  111 1   
   108  104  105 2   
   109  104  121 1   
   110  106  107 1   
   111  106  108 1   
   112  106  112 1   
   113  107  109 1   
   114  107  113 1   
   115  107  114 1   
   116  108  115 1   
   117  108  116 1   
   118  108  117 1   
   119  109  118 1   
   120  109  119 1   
   121  109  120 1   
   122  121  122 1   
   123  121  127 1   
   124  122  123 1   
   125  122  125 1   
   126  122  128 1   
   127  123  124 2   
   128  123  132 1   
   129  125  126 1   
   130  125  129 1   
   131  125  130 1   
   132  126  131 1   
   133  132  133 1   
   134  132  137 1   
   135  133  134 1   
   136  133  136 1   
   137  133  138 1   
   138  134  135 2   
   139  134  142 1   
   140  136  139 1   
   141  136  140 1   
   142  136  141 1   
   143  142  143 1   
   144  142  147 1   
   145  143  144 1   
   146  143  146 1   
   147  143  148 1   
   148  144  145 2   
   149  144  152 1   
   150  146  149 1   
   151  146  150 1   
   152  146  151 1   
   153  152  153 1   
   154  152  161 1   
   155  153  154 1   
   156  153  156 1   
   157  153  162 1   
   158  154  155 2   
   159  154  167 1   
   160  156  157 1   
   161  156  163 1   
   162  156  164 1   
   163  157  158 1   
   164  157  165 1   
   165  157  166 1   
   166  158  159 1   
   167  158  160 1   
   168  167  168 1   
   169  167  172 1   
   170  168  169 1   
   171  168  170 1   
   172  168  171 1   
   173  174  175 1   
   174  174  176 1   
   175  177  178 1   
   176  177  179 1   
@<TRIPOS>SUBSTRUCTURE
     1 MOL         1 TEMP              0 ****  ****    0 ROOT
