@<TRIPOS>MOLECULE
MOL
  189   185     1     0     0
SMALL
resp


@<TRIPOS>ATOM
      1 C1          0.0980    2.0770    6.4140 c3        1 MOL     -0.442816
      2 C2         -0.3130    1.9990    4.8870 c         1 MOL      0.735716
      3 O1         -0.1720    0.9300    4.2610 o         1 MOL     -0.598293
      4 H1          0.8330    1.3030    6.6320 hc        1 MOL      0.117675
      5 H2          0.5290    3.0560    6.6250 hc        1 MOL      0.117675
      6 H3         -0.7830    1.9260    7.0360 hc        1 MOL      0.117675
      7 N1         -0.9260    3.0760    4.3270 n         1 MOL     -0.624051
      8 C3         -1.7320    3.1120    3.1080 c3        1 MOL      0.389874
      9 C4         -1.5960    4.4570    2.3440 c         1 MOL      0.381487
     10 O2         -1.3310    5.4980    2.9280 o         1 MOL     -0.532336
     11 C5         -3.2010    2.9050    3.5220 c3        1 MOL     -0.450900
     12 C6         -4.1390    2.1740    2.5600 c         1 MOL      0.743725
     13 O3         -5.3760    2.0440    2.7620 o         1 MOL     -0.669985
     14 O4         -3.5740    1.6830    1.4840 o         1 MOL     -0.669985
     15 H4         -0.9720    3.9370    4.8500 hn        1 MOL      0.297753
     16 H5         -1.4340    2.2860    2.4620 h1        1 MOL     -0.005262
     17 H6         -3.6090    3.8800    3.7780 hc        1 MOL      0.095990
     18 H7         -3.0590    2.2990    4.4120 hc        1 MOL      0.095990
     19 N2         -1.8460    4.3170    0.9920 n         1 MOL     -0.449921
     20 C7         -1.8860    5.4360    0.0430 c3        1 MOL      0.002546
     21 C8         -2.8050    5.2250   -1.1800 c         1 MOL      0.322047
     22 O5         -3.0100    6.0680   -2.0850 o         1 MOL     -0.512825
     23 C9         -0.4060    5.7950   -0.4090 c3        1 MOL      0.125047
     24 C10        -0.2310    7.2620   -0.9040 c3        1 MOL     -0.002049
     25 C11         0.2180    4.8640   -1.4910 c3        1 MOL     -0.634716
     26 C12        -0.6820    8.2650    0.1520 c3        1 MOL     -0.204769
     27 H8         -1.9330    3.3710    0.6640 hn        1 MOL      0.716051
     28 H9         -2.3570    6.2500    0.5820 h1        1 MOL      0.113907
     29 H10         0.1270    5.5860    0.5260 hc        1 MOL      0.035846
     30 H11        -0.8330    7.4260   -1.8010 hc        1 MOL      0.038517
     31 H12         0.8240    7.4790   -1.0870 hc        1 MOL      0.038517
     32 H13         1.2560    5.1020   -1.7060 hc        1 MOL      0.189619
     33 H14         0.1960    3.8230   -1.1890 hc        1 MOL      0.189619
     34 H15        -0.3880    4.9970   -2.3840 hc        1 MOL      0.189619
     35 H16        -0.6010    9.2730   -0.2510 hc        1 MOL      0.031177
     36 H17        -1.6690    8.1920    0.6220 hc        1 MOL      0.031177
     37 H18        -0.0330    8.2410    1.0300 hc        1 MOL      0.031177
     38 N3         -3.5350    4.1170   -1.2190 n         1 MOL     -0.061539
     39 C13        -4.5000    3.7720   -2.2510 c3        1 MOL     -0.018677
     40 C14        -5.7730    3.0580   -1.8120 c         1 MOL      0.454526
     41 O6         -6.6390    2.9700   -2.6840 o         1 MOL     -0.539447
     42 C15        -3.7640    3.0110   -3.3610 c3        1 MOL     -0.124113
     43 C16        -3.0530    1.7320   -2.9350 c         1 MOL      0.854345
     44 O7         -3.3220    1.1760   -1.8570 o         1 MOL     -0.725771
     45 O8         -2.2170    1.3900   -3.7550 o         1 MOL     -0.725771
     46 H19        -3.3710    3.4370   -0.4940 hn        1 MOL     -0.213312
     47 H20        -4.8080    4.7300   -2.6580 h1        1 MOL      0.076591
     48 H21        -3.0440    3.7270   -3.7780 hc        1 MOL      0.029950
     49 H22        -4.5020    2.8040   -4.1390 hc        1 MOL      0.029950
     50 N4         -5.9200    2.5510   -0.6040 n         1 MOL     -0.261328
     51 C17        -7.1270    1.9220   -0.0960 c3        1 MOL     -0.255950
     52 C18        -7.4540    0.5660   -0.7600 c         1 MOL      0.453970
     53 O9         -8.6230    0.2490   -0.7240 o         1 MOL     -0.569423
     54 H23        -5.1580    2.5910    0.0580 hn        1 MOL      0.252905
     55 H24        -7.9920    2.4960   -0.4360 h1        1 MOL      0.130547
     56 H25        -7.1690    1.8070    0.9860 h1        1 MOL      0.130547
     57 N5         -6.4660   -0.0180   -1.4830 n         1 MOL     -0.053918
     58 C19        -6.7390   -1.3010   -2.2490 c3        1 MOL     -0.004370
     59 C20        -6.9630   -2.5380   -1.4100 c         1 MOL      0.417833
     60 O10        -7.6630   -3.4850   -1.8410 o         1 MOL     -0.589209
     61 C21        -5.5940   -1.6480   -3.1640 c3        1 MOL     -0.170063
     62 C22        -4.2410   -1.9250   -2.5540 c         1 MOL      0.707637
     63 O11        -4.1090   -1.7550   -1.3240 o         1 MOL     -0.695951
     64 O12        -3.3330   -2.2490   -3.3890 o         1 MOL     -0.695951
     65 H26        -5.6500    0.5680   -1.6300 hn        1 MOL      0.094797
     66 H27        -7.6480   -1.1200   -2.8120 h1        1 MOL      0.074929
     67 H28        -5.4800   -0.7750   -3.8040 hc        1 MOL      0.049778
     68 H29        -5.9390   -2.4920   -3.7600 hc        1 MOL      0.049778
     69 N6         -6.6690   -2.5320   -0.1600 n         1 MOL     -0.076716
     70 C23        -6.9800   -3.6730    0.7600 c3        1 MOL     -0.183322
     71 C24        -5.8050   -4.5380    1.3230 c         1 MOL      0.481717
     72 O13        -5.9950   -5.4090    2.1240 o         1 MOL     -0.553184
     73 H30        -6.0280   -1.8190    0.1600 hn        1 MOL     -0.002220
     74 H31        -7.5840   -4.4120    0.2310 h1        1 MOL      0.108451
     75 H32        -7.6750   -3.2820    1.5020 h1        1 MOL      0.108451
     76 N7         -4.5670   -4.1880    0.9140 n         1 MOL     -0.231377
     77 C25        -3.2500   -4.8140    1.2360 c3        1 MOL     -0.039486
     78 C26        -2.0850   -3.7430    1.2970 c         1 MOL      0.546419
     79 O14        -2.1590   -2.7050    0.7200 o         1 MOL     -0.558040
     80 C27        -2.8730   -5.9850    0.2610 c3        1 MOL     -0.017812
     81 C28        -3.1050   -5.6580   -1.1930 c3        1 MOL     -0.051946
     82 C29        -2.9380   -6.8390   -2.1570 c         1 MOL      0.570070
     83 N8         -3.1320   -6.6040   -3.4110 n         1 MOL     -0.714183
     84 O15        -2.5920   -8.0240   -1.8960 o         1 MOL     -0.586149
     85 H33        -4.4940   -3.3290    0.3880 hn        1 MOL      0.227565
     86 H34        -3.4430   -5.1920    2.2340 h1        1 MOL      0.053681
     87 H35        -3.3540   -6.9240    0.5010 hc        1 MOL      0.018134
     88 H36        -1.8190   -6.1810    0.4490 hc        1 MOL      0.018134
     89 H37        -2.5550   -4.7560   -1.4290 hc        1 MOL      0.057324
     90 H38        -4.1010   -5.2530   -1.3940 hc        1 MOL      0.057324
     91 H39        -3.3120   -5.7090   -3.8480 hn        1 MOL      0.337523
     92 H40        -3.2480   -7.3960   -4.0430 hn        1 MOL      0.337523
     93 N9         -1.1000   -3.9650    2.1280 n         1 MOL     -0.404728
     94 C30         0.1390   -3.1970    2.1630 c3        1 MOL     -0.065499
     95 C31         1.1670   -3.4870    1.0480 c         1 MOL      0.666808
     96 O16         1.4920   -4.6690    0.8660 o         1 MOL     -0.608983
     97 C32         0.8440   -3.3800    3.5400 c3        1 MOL      0.223779
     98 C33         2.3100   -2.9110    3.6680 c3        1 MOL     -0.345229
     99 C34         0.0230   -2.8700    4.7340 c3        1 MOL     -0.345229
    100 H41        -1.1070   -4.8180    2.6590 hn        1 MOL      0.273407
    101 H42        -0.1110   -2.1420    2.1730 h1        1 MOL      0.132024
    102 H43         0.9190   -4.4680    3.6640 hc        1 MOL     -0.032800
    103 H44         2.4620   -1.8350    3.5650 hc        1 MOL      0.081311
    104 H45         2.7290   -3.0880    4.6640 hc        1 MOL      0.081311
    105 H46         2.8970   -3.4340    2.9190 hc        1 MOL      0.081311
    106 H47        -0.1080   -1.8010    4.6080 hc        1 MOL      0.081311
    107 H48        -0.9020   -3.4410    4.8280 hc        1 MOL      0.081311
    108 H49         0.7120   -2.9790    5.5780 hc        1 MOL      0.081311
    109 N10         1.5480   -2.4860    0.2210 n         1 MOL     -0.466429
    110 C35         2.5380   -2.7390   -0.8310 c3        1 MOL      0.293887
    111 C36         3.9220   -2.2900   -0.3760 c         1 MOL      0.384614
    112 O17         4.1880   -1.7030    0.6750 o         1 MOL     -0.379925
    113 C37         2.0500   -2.1220   -2.1600 c3        1 MOL     -0.264339
    114 C38         2.3260   -0.6280   -2.3440 c         1 MOL      0.540128
    115 N11         1.3340    0.1910   -2.5300 n         1 MOL     -0.620319
    116 O18         3.4600   -0.1600   -2.3620 o         1 MOL     -0.578864
    117 H50         1.3250   -1.5190    0.4240 hn        1 MOL      0.277899
    118 H51         2.5770   -3.8120   -1.0350 h1        1 MOL      0.025496
    119 H52         0.9770   -2.2680   -2.2420 hc        1 MOL      0.089763
    120 H53         2.5620   -2.7110   -2.9170 hc        1 MOL      0.089763
    121 H54         0.4060   -0.1940   -2.4700 hn        1 MOL      0.360152
    122 H55         1.6910    1.1150   -2.7190 hn        1 MOL      0.360152
    123 N12         4.9040   -2.5510   -1.1390 n         1 MOL     -0.647772
    124 C39         6.3440   -2.2200   -0.9230 c3        1 MOL      0.431062
    125 C40         6.6260   -0.7950   -0.5390 c         1 MOL      0.566557
    126 O19         7.4470   -0.4830    0.3520 o         1 MOL     -0.544975
    127 C41         7.2890   -2.7080   -2.0040 c3        1 MOL     -0.262365
    128 C42         8.7340   -2.5210   -1.5620 ca        1 MOL      0.013123
    129 C43         9.2530   -3.2120   -0.5070 ca        1 MOL     -0.104429
    130 C44         9.6020   -1.6600   -2.3220 ca        1 MOL     -0.104429
    131 C45        10.6350   -3.2170   -0.1740 ca        1 MOL     -0.341091
    132 C46        10.9580   -1.5500   -1.9620 ca        1 MOL     -0.341091
    133 C47        11.4870   -2.3520   -0.8870 ca        1 MOL      0.430924
    134 O20        12.7810   -2.3250   -0.6170 oh        1 MOL     -0.534239
    135 H56         4.6480   -2.8200   -2.0730 hn        1 MOL      0.309001
    136 H57         6.6830   -2.7360   -0.0190 h1        1 MOL     -0.017930
    137 H58         6.9730   -2.2160   -2.9210 hc        1 MOL      0.074517
    138 H59         7.1100   -3.7670   -2.2000 hc        1 MOL      0.074517
    139 H60         8.6070   -3.9730   -0.1000 ha        1 MOL      0.126462
    140 H61         9.1800   -1.0100   -3.0820 ha        1 MOL      0.126462
    141 H62        11.0630   -3.7950    0.6360 ha        1 MOL      0.158935
    142 H63        11.5630   -0.8190   -2.4830 ha        1 MOL      0.158935
    143 H64        13.2500   -1.6290   -1.0800 ho        1 MOL      0.378617
    144 N13         5.9830    0.1500   -1.2340 n         1 MOL     -0.552355
    145 C48         6.2070    1.6100   -0.9530 c3        1 MOL      0.151573
    146 C49         5.4530    2.0110    0.3430 c         1 MOL      0.165816
    147 O21         5.8300    3.0170    0.9300 o         1 MOL     -0.493632
    148 C50         5.6690    2.4410   -2.1040 c3        1 MOL     -0.030084
    149 C51         5.9410    3.9130   -1.9820 c3        1 MOL     -0.276853
    150 C52         5.4130    4.8290   -3.0060 c         1 MOL      0.780430
    151 O22         4.5670    5.6730   -2.6680 o         1 MOL     -0.777990
    152 O23         5.8280    4.6600   -4.2120 o         1 MOL     -0.777990
    153 H65         5.3090   -0.1400   -1.9340 hn        1 MOL      0.273146
    154 H66         7.2480    1.8950   -0.8030 h1        1 MOL      0.071949
    155 H67         4.5940    2.2640   -2.1410 hc        1 MOL      0.032744
    156 H68         6.0490    2.0320   -3.0330 hc        1 MOL      0.032744
    157 H69         6.9950    4.1670   -1.8440 hc        1 MOL      0.056187
    158 H70         5.4360    4.2380   -1.0740 hc        1 MOL      0.056187
    159 N14         4.3540    1.3290    0.6470 n         1 MOL      0.036137
    160 C53         3.5540    1.6020    1.8560 c3        1 MOL     -0.096380
    161 C54         4.2650    0.9650    3.0980 c         1 MOL      0.411615
    162 O24         4.0550    1.4970    4.2080 o         1 MOL     -0.551588
    163 C55         2.1630    1.1450    1.6890 c3        1 MOL      0.384632
    164 C56         1.4060    1.9450    0.6640 c3        1 MOL     -0.197427
    165 C57         0.1060    1.2280    0.2000 c         1 MOL      0.770965
    166 O25        -0.9570    1.9160    0.0190 o         1 MOL     -0.849840
    167 O26         0.0150   -0.0220    0.1760 o         1 MOL     -0.849840
    168 H71         4.1060    0.5020    0.1150 hn        1 MOL      0.175392
    169 H72         3.5030    2.6790    2.0540 h1        1 MOL      0.074704
    170 H73         1.6720    1.3320    2.6420 hc        1 MOL     -0.095755
    171 H74         2.2320    0.0780    1.4790 hc        1 MOL     -0.095755
    172 H75         2.0540    2.2890   -0.1450 hc        1 MOL      0.038962
    173 H76         1.1280    2.8020    1.2920 hc        1 MOL      0.038962
    174 N15         5.1570   -0.0290    2.8780 n         1 MOL     -0.087038
    175 C58         5.7030   -0.8440    3.9450 c3        1 MOL     -0.129242
    176 H77         5.2440   -0.5580    4.8910 h1        1 MOL      0.055169
    177 H78         5.4940   -1.8950    3.7440 h1        1 MOL      0.055169
    178 H79         6.7810   -0.6910    4.0050 h1        1 MOL      0.055169
    179 H80         5.2560   -0.4310    1.9620 hn        1 MOL      0.070389
    180 Ca1        -2.5690   -0.2180    0.1010 Ca        1 MOL      1.747372
    181 O27        -1.9270   -0.5790    2.8270 oh        1 MOL     -0.856489
    182 H81        -1.0540   -0.3310    3.1300 ho        1 MOL      0.414991
    183 H82        -2.4670   -0.5860    3.6120 ho        1 MOL      0.414991
    184 O28        -1.4340   -0.9610   -2.2890 oh        1 MOL     -0.856489
    185 H83        -2.0720   -1.6030   -2.6010 ho        1 MOL      0.414991
    186 H84        -1.8160   -0.1150   -2.5360 ho        1 MOL      0.414991
    187 O29        -5.2250   -0.5230    1.4070 oh        1 MOL     -0.856489
    188 H85        -5.1140    0.3450    1.7830 ho        1 MOL      0.414991
    189 H86        -6.1360   -0.7480    1.5810 ho        1 MOL      0.414991
@<TRIPOS>BOND
     1    1    2 1   
     2    1    4 1   
     3    1    5 1   
     4    1    6 1   
     5    2    3 2   
     6    2    7 1   
     7    7    8 1   
     8    7   15 1   
     9    8    9 1   
    10    8   11 1   
    11    8   16 1   
    12    9   10 2   
    13    9   19 1   
    14   11   12 1   
    15   11   17 1   
    16   11   18 1   
    17   12   13 1   
    18   12   14 1   
    19   19   20 1   
    20   19   27 1   
    21   20   21 1   
    22   20   23 1   
    23   20   28 1   
    24   21   22 2   
    25   21   38 1   
    26   23   24 1   
    27   23   25 1   
    28   23   29 1   
    29   24   26 1   
    30   24   30 1   
    31   24   31 1   
    32   25   32 1   
    33   25   33 1   
    34   25   34 1   
    35   26   35 1   
    36   26   36 1   
    37   26   37 1   
    38   38   39 1   
    39   38   46 1   
    40   39   40 1   
    41   39   42 1   
    42   39   47 1   
    43   40   41 2   
    44   40   50 1   
    45   42   43 1   
    46   42   48 1   
    47   42   49 1   
    48   43   44 1   
    49   43   45 1   
    50   50   51 1   
    51   50   54 1   
    52   51   52 1   
    53   51   55 1   
    54   51   56 1   
    55   52   53 2   
    56   52   57 1   
    57   57   58 1   
    58   57   65 1   
    59   58   59 1   
    60   58   61 1   
    61   58   66 1   
    62   59   60 2   
    63   59   69 1   
    64   61   62 1   
    65   61   67 1   
    66   61   68 1   
    67   62   63 1   
    68   62   64 1   
    69   69   70 1   
    70   69   73 1   
    71   70   71 1   
    72   70   74 1   
    73   70   75 1   
    74   71   72 2   
    75   71   76 1   
    76   76   77 1   
    77   76   85 1   
    78   77   78 1   
    79   77   80 1   
    80   77   86 1   
    81   78   79 2   
    82   78   93 1   
    83   80   81 1   
    84   80   87 1   
    85   80   88 1   
    86   81   82 1   
    87   81   89 1   
    88   81   90 1   
    89   82   83 1   
    90   82   84 2   
    91   83   91 1   
    92   83   92 1   
    93   93   94 1   
    94   93  100 1   
    95   94   95 1   
    96   94   97 1   
    97   94  101 1   
    98   95   96 2   
    99   95  109 1   
   100   97   98 1   
   101   97   99 1   
   102   97  102 1   
   103   98  103 1   
   104   98  104 1   
   105   98  105 1   
   106   99  106 1   
   107   99  107 1   
   108   99  108 1   
   109  109  110 1   
   110  109  117 1   
   111  110  111 1   
   112  110  113 1   
   113  110  118 1   
   114  111  112 2   
   115  111  123 1   
   116  113  114 1   
   117  113  119 1   
   118  113  120 1   
   119  114  115 1   
   120  114  116 2   
   121  115  121 1   
   122  115  122 1   
   123  123  124 1   
   124  123  135 1   
   125  124  125 1   
   126  124  127 1   
   127  124  136 1   
   128  125  126 2   
   129  125  144 1   
   130  127  128 1   
   131  127  137 1   
   132  127  138 1   
   133  128  129 ar  
   134  128  130 ar  
   135  129  131 ar  
   136  129  139 1   
   137  130  132 ar  
   138  130  140 1   
   139  131  133 ar  
   140  131  141 1   
   141  132  133 ar  
   142  132  142 1   
   143  133  134 1   
   144  134  143 1   
   145  144  145 1   
   146  144  153 1   
   147  145  146 1   
   148  145  148 1   
   149  145  154 1   
   150  146  147 2   
   151  146  159 1   
   152  148  149 1   
   153  148  155 1   
   154  148  156 1   
   155  149  150 1   
   156  149  157 1   
   157  149  158 1   
   158  150  151 1   
   159  150  152 1   
   160  159  160 1   
   161  159  168 1   
   162  160  161 1   
   163  160  163 1   
   164  160  169 1   
   165  161  162 2   
   166  161  174 1   
   167  163  164 1   
   168  163  170 1   
   169  163  171 1   
   170  164  165 1   
   171  164  172 1   
   172  164  173 1   
   173  165  166 1   
   174  165  167 1   
   175  174  175 1   
   176  174  179 1   
   177  175  176 1   
   178  175  177 1   
   179  175  178 1   
   180  181  182 1   
   181  181  183 1   
   182  184  185 1   
   183  184  186 1   
   184  187  188 1   
   185  187  189 1   
@<TRIPOS>SUBSTRUCTURE
     1 MOL         1 TEMP              0 ****  ****    0 ROOT
