@<TRIPOS>MOLECULE
MOL
  182   178     1     0     0
SMALL
resp


@<TRIPOS>ATOM
      1 C1         -1.6220   -1.8910    6.1650 c3        1 MOL     -0.295086
      2 C2         -1.1600   -1.7080    4.7450 c         1 MOL      0.769534
      3 O1         -1.9350   -1.7240    3.8230 o         1 MOL     -0.633845
      4 H1         -2.0180   -2.8980    6.2910 hc        1 MOL      0.073978
      5 H2         -0.7810   -1.7450    6.8430 hc        1 MOL      0.073978
      6 H3         -2.4010   -1.1630    6.3910 hc        1 MOL      0.073978
      7 N1          0.0830   -1.5070    4.4900 n         1 MOL     -0.571108
      8 C3          0.5800   -1.6990    3.1670 c3        1 MOL      0.003382
      9 C4          0.7380   -3.1890    2.8350 c         1 MOL      0.540657
     10 O2          1.5440   -3.9460    3.4020 o         1 MOL     -0.557766
     11 C5          1.8570   -0.9000    3.1250 c3        1 MOL     -0.163023
     12 C6          2.6410   -1.0430    1.7780 c         1 MOL      0.775835
     13 O3          2.0350   -1.3650    0.7300 o         1 MOL     -0.737083
     14 O4          3.8940   -0.8810    1.8130 o         1 MOL     -0.737083
     15 H4          0.7020   -1.6040    5.2810 hn        1 MOL      0.330420
     16 H5         -0.1020   -1.2900    2.4150 h1        1 MOL      0.065988
     17 H6          2.5400   -1.0020    3.9680 hc        1 MOL      0.057648
     18 H7          1.7390    0.1760    3.1700 hc        1 MOL      0.057648
     19 N2         -0.0740   -3.6660    1.8900 n         1 MOL     -0.338932
     20 C7         -0.2250   -5.1730    1.5310 c3        1 MOL      0.050526
     21 C8          0.8490   -5.8260    0.6740 c         1 MOL      0.520728
     22 O5          0.8720   -6.9760    0.4430 o         1 MOL     -0.534587
     23 C9         -1.6680   -5.5270    1.0720 c3        1 MOL     -0.341793
     24 C10        -1.8640   -5.1190   -0.4470 c3        1 MOL      0.118970
     25 C11        -3.3260   -5.3620   -0.8350 c3        1 MOL      0.011570
     26 C12        -3.5100   -5.2100   -2.3640 c3        1 MOL     -0.012175
     27 N3         -4.8350   -5.6790   -2.7250 n4        1 MOL     -0.289257
     28 H8         -0.7550   -3.0290    1.5050 hn        1 MOL      0.276047
     29 H9         -0.0930   -5.7520    2.4470 h1        1 MOL      0.089807
     30 H10        -2.3550   -4.9450    1.6870 hc        1 MOL      0.125863
     31 H11        -1.7620   -6.5990    1.1960 hc        1 MOL      0.125863
     32 H12        -1.1990   -5.6270   -1.1470 hc        1 MOL      0.022429
     33 H13        -1.6810   -4.0590   -0.5500 hc        1 MOL      0.022429
     34 H14        -3.9430   -4.6400   -0.2920 hc        1 MOL      0.015108
     35 H15        -3.6320   -6.3790   -0.6060 hc        1 MOL      0.015108
     36 H16        -2.7550   -5.8550   -2.8100 hx        1 MOL      0.077051
     37 H17        -3.4160   -4.1460   -2.5870 hx        1 MOL      0.077051
     38 H18        -5.6010   -5.0440   -2.5130 hn        1 MOL      0.311293
     39 H19        -4.8870   -5.8000   -3.7290 hn        1 MOL      0.311293
     40 H20        -4.9420   -6.5800   -2.2720 hn        1 MOL      0.311293
     41 N4          1.6420   -4.8980    0.0700 n         1 MOL     -0.362595
     42 C13         2.8110   -5.3340   -0.7560 c3        1 MOL      0.045884
     43 C14         4.1690   -4.8020   -0.3730 c         1 MOL      0.378707
     44 O6          5.0600   -5.0240   -1.1490 o         1 MOL     -0.459967
     45 C15         2.5830   -5.1880   -2.2820 c3        1 MOL     -0.218666
     46 C16         2.7480   -3.7340   -2.7110 c         1 MOL      0.778631
     47 O7          3.0050   -3.5160   -3.9370 o         1 MOL     -0.727925
     48 O8          2.4710   -2.7390   -1.9730 o         1 MOL     -0.727925
     49 H21         1.6450   -3.9350    0.3630 hn        1 MOL      0.122554
     50 H22         2.8790   -6.4170   -0.6240 h1        1 MOL      0.111035
     51 H23         1.5690   -5.4900   -2.5440 hc        1 MOL      0.067086
     52 H24         3.2570   -5.9120   -2.7280 hc        1 MOL      0.067086
     53 N5          4.3760   -4.1060    0.7870 n         1 MOL     -0.241930
     54 C17         5.6830   -3.6070    1.1700 c3        1 MOL     -0.170059
     55 C18         6.3930   -2.7310    0.1320 c         1 MOL      0.483768
     56 O9          7.6030   -2.6660    0.0880 o         1 MOL     -0.564691
     57 H25         3.5560   -4.0460    1.3670 hn        1 MOL      0.253888
     58 H26         6.3820   -4.4380    1.2870 h1        1 MOL      0.110951
     59 H27         5.6300   -3.0170    2.0760 h1        1 MOL      0.110951
     60 N6          5.6660   -1.8470   -0.5770 n         1 MOL     -0.102970
     61 C19         6.2630   -0.7270   -1.3130 c3        1 MOL     -0.063666
     62 C20         6.5290    0.5090   -0.4330 c         1 MOL      0.375487
     63 O10         6.9920    1.5460   -0.8830 o         1 MOL     -0.491749
     64 C21         5.5890   -0.4050   -2.6330 c3        1 MOL     -0.385620
     65 C22         4.4840    0.6140   -2.5420 c         1 MOL      0.370532
     66 N7          4.6000    1.5520   -3.3990 n         1 MOL     -0.589705
     67 O11         3.6430    0.6660   -1.6450 o         1 MOL     -0.411464
     68 H28         4.6730   -1.9770   -0.4570 hn        1 MOL      0.094492
     69 H29         7.2080   -1.0890   -1.7050 h1        1 MOL      0.146060
     70 H30         5.2540   -1.3150   -3.1250 hc        1 MOL      0.165782
     71 H31         6.3640    0.0560   -3.2470 hc        1 MOL      0.165782
     72 H32         5.3030    1.5100   -4.1180 hn        1 MOL      0.335074
     73 H33         3.9120    2.2950   -3.4710 hn        1 MOL      0.335074
     74 N8          6.0980    0.4450    0.8170 n         1 MOL     -0.171637
     75 C23         6.0790    1.5730    1.7730 c3        1 MOL     -0.334400
     76 C24         5.0340    2.6550    1.6300 c         1 MOL      0.642887
     77 O12         5.1460    3.6660    2.3460 o         1 MOL     -0.566981
     78 H34         5.5710   -0.3830    1.0930 hn        1 MOL      0.276248
     79 H35         7.0480    2.0850    1.7690 h1        1 MOL      0.147273
     80 H36         6.0530    1.1030    2.7540 h1        1 MOL      0.147273
     81 N9          3.9600    2.4830    0.8440 n         1 MOL     -0.402086
     82 C25         2.8060    3.4710    0.6880 c3        1 MOL      0.235603
     83 C26         1.4650    2.7310    0.7630 c         1 MOL      0.438089
     84 O13         1.2940    1.6390    0.1470 o         1 MOL     -0.687838
     85 C27         2.9430    4.2260   -0.6410 c3        1 MOL      0.300570
     86 C28         4.1700    5.1240   -0.7540 ca        1 MOL     -0.298067
     87 C29         4.1350    6.4300   -0.3060 ca        1 MOL     -0.020593
     88 C30         5.4070    4.5910   -1.2140 ca        1 MOL     -0.020593
     89 C31         5.2860    7.2350   -0.2620 ca        1 MOL     -0.255048
     90 C32         6.5650    5.3480   -1.2560 ca        1 MOL     -0.255048
     91 C33         6.4970    6.6600   -0.7530 ca        1 MOL      0.325174
     92 O14         7.6210    7.4430   -0.6710 oh        1 MOL     -0.501699
     93 H37         3.9320    1.7150    0.2000 hn        1 MOL      0.197032
     94 H38         2.8770    4.2450    1.4470 h1        1 MOL      0.016006
     95 H39         2.0120    4.7520   -0.8560 hc        1 MOL     -0.050153
     96 H40         2.9480    3.5040   -1.4590 hc        1 MOL     -0.050153
     97 H41         3.1540    6.7830   -0.0120 ha        1 MOL      0.082140
     98 H42         5.4660    3.5650   -1.5620 ha        1 MOL      0.082140
     99 H43         5.4270    8.2450    0.0800 ha        1 MOL      0.147224
    100 H44         7.4890    4.9560   -1.6680 ha        1 MOL      0.147224
    101 H45         8.3420    6.8420   -0.8500 ho        1 MOL      0.371205
    102 N10         0.4830    3.3700    1.3170 n         1 MOL     -0.488981
    103 C34        -0.9350    2.8980    1.4500 c3        1 MOL      0.153363
    104 C35        -1.8320    3.7680    0.5920 c         1 MOL      0.453347
    105 O15        -1.6560    4.9770    0.6380 o         1 MOL     -0.544446
    106 C36        -1.2900    2.8760    2.9300 c3        1 MOL      0.300732
    107 C37        -0.4160    2.0920    3.9410 c3        1 MOL      0.233801
    108 C38        -2.6530    2.2980    3.1310 c3        1 MOL     -0.552407
    109 C39        -0.6580    2.6750    5.3500 c3        1 MOL     -0.200911
    110 H46         0.6930    4.3130    1.6230 hn        1 MOL      0.260089
    111 H47        -1.0070    1.8820    1.0510 h1        1 MOL      0.097988
    112 H48        -1.3970    3.9020    3.2940 hc        1 MOL     -0.036516
    113 H49         0.5830    2.4840    3.7530 hc        1 MOL     -0.070156
    114 H50        -0.4300    1.0010    3.8740 hc        1 MOL     -0.070156
    115 H51        -3.4500    2.7320    2.5300 hc        1 MOL      0.107255
    116 H52        -2.5380    1.2300    2.9700 hc        1 MOL      0.107255
    117 H53        -2.8240    2.5440    4.1810 hc        1 MOL      0.107255
    118 H54        -0.4820    3.7470    5.3270 hc        1 MOL      0.041096
    119 H55        -1.6480    2.5590    5.8030 hc        1 MOL      0.041096
    120 H56         0.0750    2.3050    6.0600 hc        1 MOL      0.041096
    121 N11        -2.7680    3.1360   -0.0930 n         1 MOL     -0.121934
    122 C40        -3.7600    3.7080   -1.0300 c3        1 MOL      0.052887
    123 C41        -5.1890    3.5420   -0.4910 c         1 MOL      0.408374
    124 O16        -5.4080    3.1560    0.6790 o         1 MOL     -0.379678
    125 C42        -3.7220    2.8830   -2.3420 c3        1 MOL     -0.293760
    126 O17        -4.3170    1.5770   -2.1890 oh        1 MOL     -0.390608
    127 H57        -2.6410    2.1540   -0.3160 hn        1 MOL      0.090784
    128 H58        -3.5830    4.7710   -1.1520 h1        1 MOL      0.088000
    129 H59        -2.6910    2.6860   -2.6230 h1        1 MOL      0.133229
    130 H60        -4.2570    3.4070   -3.1320 h1        1 MOL      0.133229
    131 H61        -3.8610    1.0940   -2.8890 ho        1 MOL      0.384603
    132 N12        -6.2500    3.9760   -1.2710 n         1 MOL     -0.458948
    133 C43        -7.6590    3.7150   -0.9280 c3        1 MOL      0.193008
    134 C44        -8.0220    2.2280   -1.1260 c         1 MOL      0.443409
    135 O18        -8.5340    1.5970   -0.2050 o         1 MOL     -0.488114
    136 C45        -8.5460    4.6260   -1.8350 c3        1 MOL     -0.461598
    137 H62        -6.0990    4.3830   -2.1770 hn        1 MOL      0.297826
    138 H63        -7.8460    4.0240    0.0970 h1        1 MOL      0.097316
    139 H64        -8.4620    5.6510   -1.4710 hc        1 MOL      0.135051
    140 H65        -8.3140    4.6320   -2.9010 hc        1 MOL      0.135051
    141 H66        -9.5410    4.2020   -1.6870 hc        1 MOL      0.135051
    142 N13        -7.7000    1.5630   -2.2450 n         1 MOL     -0.399761
    143 C46        -7.9010    0.1010   -2.3640 c3        1 MOL      0.160387
    144 C47        -7.2000   -0.7790   -1.3130 c         1 MOL      0.400613
    145 O19        -7.6530   -1.8840   -1.0190 o         1 MOL     -0.549914
    146 C48        -7.6170   -0.1490   -3.8300 c3        1 MOL     -0.403105
    147 H67        -7.2460    2.0210   -3.0300 hn        1 MOL      0.262645
    148 H68        -8.9450   -0.1250   -2.1610 h1        1 MOL      0.090985
    149 H69        -8.5620   -0.0730   -4.3640 hc        1 MOL      0.106660
    150 H70        -6.8900    0.5430   -4.2540 hc        1 MOL      0.106660
    151 H71        -7.2310   -1.1430   -4.0680 hc        1 MOL      0.106660
    152 N14        -6.1260   -0.2490   -0.7700 n         1 MOL     -0.062922
    153 C49        -5.3650   -0.8580    0.4000 c3        1 MOL     -0.112963
    154 C50        -6.0190   -0.4960    1.7660 c         1 MOL      0.498168
    155 O20        -6.0940   -1.3790    2.6510 o         1 MOL     -0.554678
    156 C51        -3.9030   -0.4530    0.4970 c3        1 MOL      0.078055
    157 C52        -3.1090   -1.0390   -0.6920 c3        1 MOL     -0.127180
    158 C53        -1.7200   -0.5280   -0.7530 c         1 MOL      0.675250
    159 O21        -0.8430   -1.2660   -0.2710 o         1 MOL     -0.665007
    160 O22        -1.3240    0.4060   -1.4900 o         1 MOL     -0.665007
    161 H72        -5.8860    0.6320   -1.2060 hn        1 MOL      0.006079
    162 H73        -5.5230   -1.9390    0.3510 h1        1 MOL      0.104580
    163 H74        -3.4530   -0.7210    1.4520 hc        1 MOL      0.051040
    164 H75        -3.8350    0.6270    0.4050 hc        1 MOL      0.051040
    165 H76        -3.5140   -0.8050   -1.6790 hc        1 MOL     -0.021160
    166 H77        -2.9480   -2.1150   -0.5790 hc        1 MOL     -0.021160
    167 N15        -6.5470    0.7320    1.9800 n         1 MOL     -0.170324
    168 C54        -7.4880    1.0110    3.1170 c3        1 MOL     -0.263728
    169 H78        -7.8440    0.0690    3.5340 h1        1 MOL      0.115343
    170 H79        -6.9670    1.5760    3.8890 h1        1 MOL      0.115343
    171 H80        -8.3360    1.5900    2.7530 h1        1 MOL      0.115343
    172 H81        -6.3690    1.4460    1.2960 hn        1 MOL      0.145448
    173 Ca1         1.2570   -0.3630   -1.5500 Ca        1 MOL      1.785342
    174 O23         2.3950   -0.7800   -4.1010 oh        1 MOL     -0.824764
    175 H82         2.8940   -0.5500   -4.8810 ho        1 MOL      0.394360
    176 H83         2.5050   -1.7270   -4.0110 ho        1 MOL      0.394360
    177 O24         0.6700    1.9600   -2.8750 oh        1 MOL     -0.824764
    178 H84         1.0950    2.5920   -3.4550 ho        1 MOL      0.394360
    179 H85        -0.1920    2.3220   -2.7160 ho        1 MOL      0.394360
    180 O25        -0.3840   -1.7390   -3.4070 oh        1 MOL     -0.824764
    181 H86        -0.5070   -2.6920   -3.4320 ho        1 MOL      0.394360
    182 H87        -0.8520   -1.4190   -4.1850 ho        1 MOL      0.394360
@<TRIPOS>BOND
     1    1    2 1   
     2    1    4 1   
     3    1    5 1   
     4    1    6 1   
     5    2    3 2   
     6    2    7 1   
     7    7    8 1   
     8    7   15 1   
     9    8    9 1   
    10    8   11 1   
    11    8   16 1   
    12    9   10 2   
    13    9   19 1   
    14   11   12 1   
    15   11   17 1   
    16   11   18 1   
    17   12   13 1   
    18   12   14 1   
    19   19   20 1   
    20   19   28 1   
    21   20   21 1   
    22   20   23 1   
    23   20   29 1   
    24   21   22 2   
    25   21   41 1   
    26   23   24 1   
    27   23   30 1   
    28   23   31 1   
    29   24   25 1   
    30   24   32 1   
    31   24   33 1   
    32   25   26 1   
    33   25   34 1   
    34   25   35 1   
    35   26   27 1   
    36   26   36 1   
    37   26   37 1   
    38   27   38 1   
    39   27   39 1   
    40   27   40 1   
    41   41   42 1   
    42   41   49 1   
    43   42   43 1   
    44   42   45 1   
    45   42   50 1   
    46   43   44 2   
    47   43   53 1   
    48   45   46 1   
    49   45   51 1   
    50   45   52 1   
    51   46   47 1   
    52   46   48 1   
    53   53   54 1   
    54   53   57 1   
    55   54   55 1   
    56   54   58 1   
    57   54   59 1   
    58   55   56 2   
    59   55   60 1   
    60   60   61 1   
    61   60   68 1   
    62   61   62 1   
    63   61   64 1   
    64   61   69 1   
    65   62   63 2   
    66   62   74 1   
    67   64   65 1   
    68   64   70 1   
    69   64   71 1   
    70   65   66 1   
    71   65   67 2   
    72   66   72 1   
    73   66   73 1   
    74   74   75 1   
    75   74   78 1   
    76   75   76 1   
    77   75   79 1   
    78   75   80 1   
    79   76   77 2   
    80   76   81 1   
    81   81   82 1   
    82   81   93 1   
    83   82   83 1   
    84   82   85 1   
    85   82   94 1   
    86   83   84 2   
    87   83  102 1   
    88   85   86 1   
    89   85   95 1   
    90   85   96 1   
    91   86   87 ar  
    92   86   88 ar  
    93   87   89 ar  
    94   87   97 1   
    95   88   90 ar  
    96   88   98 1   
    97   89   91 ar  
    98   89   99 1   
    99   90   91 ar  
   100   90  100 1   
   101   91   92 1   
   102   92  101 1   
   103  102  103 1   
   104  102  110 1   
   105  103  104 1   
   106  103  106 1   
   107  103  111 1   
   108  104  105 2   
   109  104  121 1   
   110  106  107 1   
   111  106  108 1   
   112  106  112 1   
   113  107  109 1   
   114  107  113 1   
   115  107  114 1   
   116  108  115 1   
   117  108  116 1   
   118  108  117 1   
   119  109  118 1   
   120  109  119 1   
   121  109  120 1   
   122  121  122 1   
   123  121  127 1   
   124  122  123 1   
   125  122  125 1   
   126  122  128 1   
   127  123  124 2   
   128  123  132 1   
   129  125  126 1   
   130  125  129 1   
   131  125  130 1   
   132  126  131 1   
   133  132  133 1   
   134  132  137 1   
   135  133  134 1   
   136  133  136 1   
   137  133  138 1   
   138  134  135 2   
   139  134  142 1   
   140  136  139 1   
   141  136  140 1   
   142  136  141 1   
   143  142  143 1   
   144  142  147 1   
   145  143  144 1   
   146  143  146 1   
   147  143  148 1   
   148  144  145 2   
   149  144  152 1   
   150  146  149 1   
   151  146  150 1   
   152  146  151 1   
   153  152  153 1   
   154  152  161 1   
   155  153  154 1   
   156  153  156 1   
   157  153  162 1   
   158  154  155 2   
   159  154  167 1   
   160  156  157 1   
   161  156  163 1   
   162  156  164 1   
   163  157  158 1   
   164  157  165 1   
   165  157  166 1   
   166  158  159 1   
   167  158  160 1   
   168  167  168 1   
   169  167  172 1   
   170  168  169 1   
   171  168  170 1   
   172  168  171 1   
   173  174  175 1   
   174  174  176 1   
   175  177  178 1   
   176  177  179 1   
   177  180  181 1   
   178  180  182 1   
@<TRIPOS>SUBSTRUCTURE
     1 MOL         1 TEMP              0 ****  ****    0 ROOT
