@<TRIPOS>MOLECULE
MOL
  175   173     1     0     0
SMALL
resp


@<TRIPOS>ATOM
      1 C1          0.4950    4.0420    5.4910 c3        1 MOL     -0.401226
      2 C2         -0.0320    4.1220    4.0780 c         1 MOL      0.763891
      3 O1          0.7430    4.2630    3.1680 o         1 MOL     -0.555065
      4 H1          1.2660    3.2730    5.5480 hc        1 MOL      0.090714
      5 H2          0.9210    5.0040    5.7760 hc        1 MOL      0.090714
      6 H3         -0.3200    3.7890    6.1700 hc        1 MOL      0.090714
      7 N1         -1.3330    3.9690    3.8670 n         1 MOL     -0.673048
      8 C3         -1.8320    3.6960    2.5240 c3        1 MOL      0.036636
      9 C4         -1.7290    4.8960    1.5470 c         1 MOL      0.684532
     10 O2         -1.7210    6.0560    1.8730 o         1 MOL     -0.590228
     11 C5         -3.2880    3.3800    2.6460 c3        1 MOL     -0.333918
     12 C6         -3.9050    2.6970    1.5000 c         1 MOL      0.601711
     13 O3         -5.1860    2.6570    1.4970 o         1 MOL     -0.610909
     14 O4         -3.1480    2.0630    0.7040 o         1 MOL     -0.610909
     15 H4         -1.9850    4.0830    4.6260 hn        1 MOL      0.354987
     16 H5         -1.4060    2.7780    2.1190 h1        1 MOL      0.173587
     17 H6         -3.8590    4.3110    2.7170 hc        1 MOL      0.077051
     18 H7         -3.4680    2.7580    3.5270 hc        1 MOL      0.077051
     19 N2         -1.6880    4.5710    0.2480 n         1 MOL     -0.636352
     20 C7         -1.8100    5.4250   -0.9100 c3        1 MOL      0.550029
     21 C8         -3.1470    5.1450   -1.7120 c         1 MOL      0.323113
     22 O5         -3.6190    6.0590   -2.3990 o         1 MOL     -0.575439
     23 C9         -0.4600    5.3600   -1.7510 c3        1 MOL     -0.300739
     24 H8         -1.4610    3.5970    0.1100 hn        1 MOL      0.259723
     25 H9         -1.9510    6.4800   -0.6550 h1        1 MOL     -0.048997
     26 H10        -0.4920    6.1500   -2.5050 hc        1 MOL      0.061034
     27 H11         0.4010    5.4830   -1.1000 hc        1 MOL      0.061034
     28 H12        -0.5420    4.3820   -2.2320 hc        1 MOL      0.061034
     29 N3         -3.7130    3.9260   -1.6770 n         1 MOL     -0.214953
     30 C10        -4.6880    3.5470   -2.7230 c3        1 MOL      0.040740
     31 C11        -5.9900    2.8790   -2.2150 c         1 MOL      0.315698
     32 O6         -6.8600    2.7790   -3.0600 o         1 MOL     -0.553911
     33 C12        -3.9030    2.6220   -3.6640 c3        1 MOL     -0.192999
     34 C13        -3.2250    1.4940   -2.9880 c         1 MOL      0.793009
     35 O7         -3.7200    1.1860   -1.9090 o         1 MOL     -0.761768
     36 O8         -2.1500    1.0020   -3.4920 o         1 MOL     -0.761768
     37 H13        -3.2440    3.2190   -1.1150 hn        1 MOL      0.247694
     38 H14        -4.9050    4.4180   -3.3430 h1        1 MOL      0.109636
     39 H15        -3.1830    3.2460   -4.1900 hc        1 MOL      0.037974
     40 H16        -4.5200    2.1260   -4.4140 hc        1 MOL      0.037974
     41 N4         -6.2340    2.4160   -0.9880 n         1 MOL      0.039612
     42 C14        -7.4510    1.7160   -0.5970 c3        1 MOL     -0.357631
     43 C15        -7.5180    0.1740   -1.0360 c         1 MOL      0.480777
     44 O9         -8.6250   -0.3630   -1.1400 o         1 MOL     -0.593425
     45 H17        -5.5010    2.5630   -0.3180 hn        1 MOL      0.008036
     46 H18        -8.3350    2.1940   -1.0110 h1        1 MOL      0.149598
     47 H19        -7.3910    1.7110    0.4890 h1        1 MOL      0.149598
     48 N5         -6.4990   -0.4400   -1.6220 n         1 MOL     -0.134317
     49 C16        -6.6270   -1.8620   -2.0800 c3        1 MOL      0.011042
     50 C17        -6.8550   -2.9340   -0.9230 c         1 MOL      0.431095
     51 O10        -7.4170   -3.9830   -1.2170 o         1 MOL     -0.533553
     52 C18        -5.4060   -2.2200   -2.9700 c3        1 MOL     -0.220302
     53 C19        -4.0500   -2.2550   -2.3350 c         1 MOL      0.830581
     54 N6         -2.9950   -2.4080   -3.0960 n         1 MOL     -0.758712
     55 O11        -3.8570   -2.0300   -1.1400 o         1 MOL     -0.812211
     56 H20        -5.6940    0.1410   -1.8100 hn        1 MOL      0.220602
     57 H21        -7.4710   -1.9150   -2.7630 h1        1 MOL      0.091988
     58 H22        -5.4020   -1.5500   -3.8290 hc        1 MOL      0.062352
     59 H23        -5.6090   -3.2380   -3.3080 hc        1 MOL      0.062352
     60 H24        -3.0390   -2.5710   -4.0880 hn        1 MOL      0.344994
     61 H25        -2.1000   -2.1140   -2.7340 hn        1 MOL      0.344994
     62 N7         -6.4040   -2.6500    0.3290 n         1 MOL     -0.155775
     63 C20        -6.4890   -3.5040    1.5040 c3        1 MOL     -0.095916
     64 C21        -5.1920   -4.2230    1.8410 c         1 MOL      0.479458
     65 O12        -5.2570   -5.1990    2.5470 o         1 MOL     -0.566576
     66 H26        -6.1780   -1.6730    0.4140 hn        1 MOL      0.171011
     67 H27        -7.2950   -4.2270    1.4080 h1        1 MOL      0.069542
     68 H28        -6.7950   -2.7930    2.2720 h1        1 MOL      0.069542
     69 N8         -4.0700   -3.8520    1.2460 n         1 MOL     -0.202779
     70 C22        -2.7920   -4.5670    1.3340 c3        1 MOL     -0.179888
     71 C23        -1.6950   -3.5190    1.3810 c         1 MOL      0.596925
     72 O13        -1.7250   -2.5020    0.7140 o         1 MOL     -0.543956
     73 C24        -2.5380   -5.5480    0.1500 c3        1 MOL      0.585343
     74 C25        -3.6900   -6.6230    0.1930 c3        1 MOL     -0.624156
     75 O14        -2.5750   -4.8400   -1.0520 oh        1 MOL     -0.625024
     76 H29        -4.0930   -3.0000    0.7020 hn        1 MOL      0.233467
     77 H30        -2.7280   -5.1690    2.2400 h1        1 MOL      0.059794
     78 H31        -1.5630   -6.0170    0.2980 h1        1 MOL     -0.067718
     79 H32        -1.9080   -4.1590   -1.0290 ho        1 MOL      0.384067
     80 H33        -4.6190   -6.2020   -0.2090 hc        1 MOL      0.165816
     81 H34        -3.4260   -7.4390   -0.4740 hc        1 MOL      0.165816
     82 H35        -3.8980   -7.0420    1.1740 hc        1 MOL      0.165816
     83 N9         -0.5770   -3.8300    2.0680 n         1 MOL     -0.557161
     84 C26         0.6500   -3.0200    2.0200 c3        1 MOL     -0.007978
     85 C27         1.6690   -3.3950    0.8640 c         1 MOL      0.835092
     86 O15         1.9570   -4.5260    0.6330 o         1 MOL     -0.606589
     87 C28         1.2940   -3.0370    3.4660 c3        1 MOL     -0.007120
     88 C29         0.4280   -2.0600    4.3560 c3        1 MOL      0.068041
     89 C30         2.7550   -2.5530    3.5950 c3        1 MOL      0.013293
     90 C31         0.8610   -1.8340    5.8070 c3        1 MOL     -0.247973
     91 H36        -0.6840   -4.6350    2.6610 hn        1 MOL      0.299190
     92 H37         0.3680   -1.9850    1.8490 h1        1 MOL      0.051887
     93 H38         1.2520   -4.0900    3.7320 hc        1 MOL      0.020552
     94 H39        -0.6090   -2.3500    4.4850 hc        1 MOL      0.035045
     95 H40         0.5490   -1.0710    3.9090 hc        1 MOL      0.035045
     96 H41         3.1270   -2.7230    4.6070 hc        1 MOL     -0.015434
     97 H42         3.4020   -3.1130    2.9360 hc        1 MOL     -0.015434
     98 H43         2.8580   -1.5080    3.2760 hc        1 MOL     -0.015434
     99 H44         0.0720   -1.3760    6.4080 hc        1 MOL      0.049925
    100 H45         1.1400   -2.8100    6.1930 hc        1 MOL      0.049925
    101 H46         1.6920   -1.1320    5.8710 hc        1 MOL      0.049925
    102 N10         2.1190   -2.3780    0.1640 n         1 MOL     -0.745955
    103 C32         2.7130   -2.4090   -1.1170 c3        1 MOL      0.315294
    104 C33         4.0410   -1.5880   -0.9120 c         1 MOL      0.470848
    105 O16         4.1750   -0.8130    0.0470 o         1 MOL     -0.287065
    106 C34         1.8330   -1.6470   -2.1440 c3        1 MOL     -0.402519
    107 C35         0.3570   -2.0950   -2.1450 c         1 MOL      0.853685
    108 O17        -0.5150   -1.2320   -1.8490 o         1 MOL     -0.685107
    109 O18         0.1580   -3.2680   -2.5000 o         1 MOL     -0.685107
    110 H47         1.8430   -1.4280    0.4050 hn        1 MOL      0.271463
    111 H48         2.8070   -3.4250   -1.4850 h1        1 MOL      0.049333
    112 H49         2.2990   -1.7680   -3.1220 hc        1 MOL      0.083164
    113 H50         1.8720   -0.5930   -1.8840 hc        1 MOL      0.083164
    114 N11         5.0870   -1.8860   -1.7580 n         1 MOL     -0.833305
    115 C36         6.4750   -1.6650   -1.2190 c3        1 MOL      0.512643
    116 C37         6.9030   -0.1990   -1.0040 c         1 MOL      0.341319
    117 O19         7.4010    0.1760    0.1080 o         1 MOL     -0.507054
    118 C38         7.4670   -2.4160   -2.1820 c3        1 MOL     -0.237525
    119 C39         8.9210   -1.9920   -1.9550 ca        1 MOL      0.058555
    120 C40         9.4130   -2.2800   -0.6720 ca        1 MOL     -0.156626
    121 C41         9.7480   -1.3020   -2.8730 ca        1 MOL     -0.156626
    122 C42        10.7140   -2.0590   -0.2660 ca        1 MOL     -0.091254
    123 C43        11.1150   -1.0960   -2.4970 ca        1 MOL     -0.091254
    124 C44        11.5900   -1.5230   -1.2400 ca        1 MOL     -0.140372
    125 H51         4.9430   -2.5970   -2.4520 hn        1 MOL      0.359632
    126 H52         6.5000   -2.1060   -0.2230 h1        1 MOL      0.014938
    127 H53         7.2080   -2.2320   -3.2210 hc        1 MOL      0.072129
    128 H54         7.3690   -3.4810   -1.9330 hc        1 MOL      0.072129
    129 H55         8.6990   -2.6840    0.0380 ha        1 MOL      0.106134
    130 H56         9.4690   -0.9820   -3.8670 ha        1 MOL      0.106134
    131 H57        11.1110   -2.3670    0.6820 ha        1 MOL      0.111844
    132 H58        11.8150   -0.5500   -3.1170 ha        1 MOL      0.111844
    133 H59        12.6370   -1.3480   -1.0180 ha        1 MOL      0.101502
    134 N12         6.4800    0.7170   -1.8850 n         1 MOL     -0.063380
    135 C45         6.6090    2.0990   -1.6450 c3        1 MOL      0.106373
    136 C46         5.8390    2.6800   -0.3940 c         1 MOL      0.279097
    137 O20         6.3550    3.5570    0.1950 o         1 MOL     -0.486097
    138 C47         6.0840    2.7590   -2.9280 c3        1 MOL      0.019652
    139 C48         6.6960    1.8120   -3.9140 c3        1 MOL     -0.058811
    140 C49         6.3070    0.4660   -3.3660 c3        1 MOL     -0.159434
    141 H60         7.6590    2.3670   -1.4940 h1        1 MOL      0.046286
    142 H61         4.9940    2.6690   -2.9280 hc        1 MOL      0.020508
    143 H62         6.5280    3.7490   -3.0050 hc        1 MOL      0.020508
    144 H63         6.2600    2.0380   -4.8880 hc        1 MOL      0.027937
    145 H64         7.7770    1.9610   -3.9220 hc        1 MOL      0.027937
    146 H65         5.2540    0.2260   -3.5310 h1        1 MOL      0.096820
    147 H66         6.8780   -0.3590   -3.7850 h1        1 MOL      0.096820
    148 N13         4.7900    2.0440    0.2040 n         1 MOL     -0.193145
    149 C50         4.1750    2.3610    1.5070 c3        1 MOL     -0.010666
    150 C51         4.9200    1.6320    2.6350 c         1 MOL      0.477502
    151 O21         5.0910    2.2380    3.6530 o         1 MOL     -0.573307
    152 C52         2.7420    1.8480    1.5790 c3        1 MOL     -0.157818
    153 C53         1.8440    2.2950    0.4350 c3        1 MOL     -0.071812
    154 C54         0.4760    1.6190    0.4370 c         1 MOL      0.623375
    155 O22         0.2090    0.7570    1.3100 o         1 MOL     -0.753290
    156 O23        -0.4590    1.9530   -0.3720 o         1 MOL     -0.753290
    157 H67         4.4840    1.2300   -0.3120 hn        1 MOL      0.138815
    158 H68         4.2980    3.4220    1.7300 h1        1 MOL      0.111818
    159 H69         2.3160    2.1070    2.5470 hc        1 MOL      0.097798
    160 H70         2.8110    0.7650    1.5040 hc        1 MOL      0.097798
    161 H71         2.2280    2.1970   -0.5710 hc        1 MOL      0.055786
    162 H72         1.7530    3.3780    0.5450 hc        1 MOL      0.055786
    163 N14         5.4900    0.4700    2.3720 n         1 MOL     -0.005824
    164 C55         6.4210   -0.0930    3.3790 c3        1 MOL     -0.288181
    165 H73         6.8880   -0.9930    2.9790 h1        1 MOL      0.099352
    166 H74         7.1920    0.6420    3.6120 h1        1 MOL      0.099352
    167 H75         5.8700   -0.3410    4.2850 h1        1 MOL      0.099352
    168 H76         5.1450   -0.0310    1.5740 hn        1 MOL      0.038431
    169 Ca1        -2.1330   -0.0990   -0.2890 Ca        1 MOL      1.760208
    170 O24        -3.9480   -0.6150    1.5370 oh        1 MOL     -0.857923
    171 H77        -3.3860   -0.6240    2.3120 ho        1 MOL      0.415620
    172 H78        -4.7470   -0.1600    1.8280 ho        1 MOL      0.415620
    173 O25        -1.7050   -0.2660    2.9150 oh        1 MOL     -0.857923
    174 H79        -1.0380    0.2840    2.5050 ho        1 MOL      0.415620
    175 H80        -1.8760    0.1490    3.7520 ho        1 MOL      0.415620
@<TRIPOS>BOND
     1    1    2 1   
     2    1    4 1   
     3    1    5 1   
     4    1    6 1   
     5    2    3 2   
     6    2    7 1   
     7    7    8 1   
     8    7   15 1   
     9    8    9 1   
    10    8   11 1   
    11    8   16 1   
    12    9   10 2   
    13    9   19 1   
    14   11   12 1   
    15   11   17 1   
    16   11   18 1   
    17   12   13 1   
    18   12   14 1   
    19   19   20 1   
    20   19   24 1   
    21   20   21 1   
    22   20   23 1   
    23   20   25 1   
    24   21   22 2   
    25   21   29 1   
    26   23   26 1   
    27   23   27 1   
    28   23   28 1   
    29   29   30 1   
    30   29   37 1   
    31   30   31 1   
    32   30   33 1   
    33   30   38 1   
    34   31   32 2   
    35   31   41 1   
    36   33   34 1   
    37   33   39 1   
    38   33   40 1   
    39   34   35 1   
    40   34   36 1   
    41   41   42 1   
    42   41   45 1   
    43   42   43 1   
    44   42   46 1   
    45   42   47 1   
    46   43   44 2   
    47   43   48 1   
    48   48   49 1   
    49   48   56 1   
    50   49   50 1   
    51   49   52 1   
    52   49   57 1   
    53   50   51 2   
    54   50   62 1   
    55   52   53 1   
    56   52   58 1   
    57   52   59 1   
    58   53   54 1   
    59   53   55 2   
    60   54   60 1   
    61   54   61 1   
    62   62   63 1   
    63   62   66 1   
    64   63   64 1   
    65   63   67 1   
    66   63   68 1   
    67   64   65 2   
    68   64   69 1   
    69   69   70 1   
    70   69   76 1   
    71   70   71 1   
    72   70   73 1   
    73   70   77 1   
    74   71   72 2   
    75   71   83 1   
    76   73   74 1   
    77   73   75 1   
    78   73   78 1   
    79   74   80 1   
    80   74   81 1   
    81   74   82 1   
    82   75   79 1   
    83   83   84 1   
    84   83   91 1   
    85   84   85 1   
    86   84   87 1   
    87   84   92 1   
    88   85   86 2   
    89   85  102 1   
    90   87   88 1   
    91   87   89 1   
    92   87   93 1   
    93   88   90 1   
    94   88   94 1   
    95   88   95 1   
    96   89   96 1   
    97   89   97 1   
    98   89   98 1   
    99   90   99 1   
   100   90  100 1   
   101   90  101 1   
   102  102  103 1   
   103  102  110 1   
   104  103  104 1   
   105  103  106 1   
   106  103  111 1   
   107  104  105 2   
   108  104  114 1   
   109  106  107 1   
   110  106  112 1   
   111  106  113 1   
   112  107  108 1   
   113  107  109 1   
   114  114  115 1   
   115  114  125 1   
   116  115  116 1   
   117  115  118 1   
   118  115  126 1   
   119  116  117 2   
   120  116  134 1   
   121  118  119 1   
   122  118  127 1   
   123  118  128 1   
   124  119  120 ar  
   125  119  121 ar  
   126  120  122 ar  
   127  120  129 1   
   128  121  123 ar  
   129  121  130 1   
   130  122  124 ar  
   131  122  131 1   
   132  123  124 ar  
   133  123  132 1   
   134  124  133 1   
   135  134  135 1   
   136  134  140 1   
   137  135  136 1   
   138  135  138 1   
   139  135  141 1   
   140  136  137 2   
   141  136  148 1   
   142  138  139 1   
   143  138  142 1   
   144  138  143 1   
   145  139  140 1   
   146  139  144 1   
   147  139  145 1   
   148  140  146 1   
   149  140  147 1   
   150  148  149 1   
   151  148  157 1   
   152  149  150 1   
   153  149  152 1   
   154  149  158 1   
   155  150  151 2   
   156  150  163 1   
   157  152  153 1   
   158  152  159 1   
   159  152  160 1   
   160  153  154 1   
   161  153  161 1   
   162  153  162 1   
   163  154  155 1   
   164  154  156 1   
   165  163  164 1   
   166  163  168 1   
   167  164  165 1   
   168  164  166 1   
   169  164  167 1   
   170  170  171 1   
   171  170  172 1   
   172  173  174 1   
   173  173  175 1   
@<TRIPOS>SUBSTRUCTURE
     1 MOL         1 TEMP              0 ****  ****    0 ROOT
