@<TRIPOS>MOLECULE
MOL
  179   176     1     0     0
SMALL
resp


@<TRIPOS>ATOM
      1 C1          2.5610    1.1200    5.5310 c3        1 MOL     -0.278137
      2 C2          1.8890    1.2700    4.1720 c         1 MOL      0.594588
      3 O1          2.5530    1.2070    3.1260 o         1 MOL     -0.545270
      4 H1          2.8650    2.1010    5.8950 hc        1 MOL      0.081984
      5 H2          1.8620    0.6700    6.2360 hc        1 MOL      0.081984
      6 H3          3.4400    0.4810    5.4340 hc        1 MOL      0.081984
      7 N1          0.5460    1.3950    4.0860 n         1 MOL     -0.469754
      8 C3         -0.2120    1.6510    2.8900 c3        1 MOL      0.089310
      9 C4         -0.0010    3.2150    2.4140 c         1 MOL      0.412568
     10 O2         -0.4680    4.1730    3.0240 o         1 MOL     -0.531228
     11 C5         -1.6520    1.3960    3.1960 c3        1 MOL     -0.042766
     12 C6         -2.5530    1.4810    1.9720 c         1 MOL      0.688911
     13 O3         -2.0150    1.5820    0.8280 o         1 MOL     -0.715480
     14 O4         -3.7960    1.5510    2.1930 o         1 MOL     -0.715480
     15 H4          0.1750    1.6210    4.9990 hn        1 MOL      0.285135
     16 H5          0.1800    1.0450    2.0690 h1        1 MOL      0.025136
     17 H6         -2.0010    2.1100    3.9360 hc        1 MOL      0.026426
     18 H7         -1.6760    0.4420    3.7190 hc        1 MOL      0.026426
     19 N2          0.7250    3.3430    1.3090 n         1 MOL      0.023755
     20 C7          1.4390    4.5700    0.8400 c3        1 MOL     -0.268564
     21 C8          0.4470    5.5160    0.2350 c         1 MOL      0.504947
     22 O5          0.5880    6.7070    0.4470 o         1 MOL     -0.567824
     23 C9          2.6580    4.2100    0.0270 c3        1 MOL      0.018857
     24 C10         3.6560    5.3910   -0.1240 c3        1 MOL     -0.042384
     25 C11         4.9470    5.0860   -0.8720 c3        1 MOL     -0.047093
     26 C12         5.6800    6.4180   -1.2970 c3        1 MOL      0.026406
     27 N3          7.0360    6.2270   -1.8570 n4        1 MOL     -0.303113
     28 H8          1.1510    2.5500    0.8590 hn        1 MOL     -0.033247
     29 H9          1.7320    5.0000    1.7980 h1        1 MOL      0.142819
     30 H10         2.3440    3.7630   -0.9130 hc        1 MOL      0.068884
     31 H11         3.0850    3.3320    0.5050 hc        1 MOL      0.068884
     32 H12         3.8840    5.8430    0.8450 hc        1 MOL      0.040388
     33 H13         3.1490    6.1910   -0.6660 hc        1 MOL      0.040388
     34 H14         4.6230    4.4730   -1.7120 hc        1 MOL      0.041805
     35 H15         5.6800    4.4920   -0.3240 hc        1 MOL      0.041805
     36 H16         5.8000    7.0280   -0.4130 hx        1 MOL      0.088001
     37 H17         5.0760    7.0050   -1.9880 hx        1 MOL      0.088001
     38 H18         7.5120    7.1100   -2.0040 hn        1 MOL      0.312639
     39 H19         7.6150    5.5780   -1.3390 hn        1 MOL      0.312639
     40 H20         7.0470    5.8210   -2.7820 hn        1 MOL      0.312639
     41 N4         -0.6240    4.9940   -0.3420 n         1 MOL     -0.246091
     42 C13        -1.7200    5.6540   -1.0160 c3        1 MOL      0.050508
     43 C14        -3.1200    5.4970   -0.4530 c         1 MOL      0.498065
     44 O6         -4.0860    6.0650   -0.9390 o         1 MOL     -0.531604
     45 C15        -1.5700    5.1990   -2.4590 c3        1 MOL     -0.225210
     46 C16        -1.6940    3.7410   -2.7610 c         1 MOL      0.823200
     47 O7         -1.6550    2.9050   -1.9080 o         1 MOL     -0.747270
     48 O8         -1.8830    3.4110   -3.9700 o         1 MOL     -0.747270
     49 H21        -0.5260    4.0050   -0.5000 hn        1 MOL      0.212319
     50 H22        -1.5080    6.7170   -0.9270 h1        1 MOL      0.078154
     51 H23        -0.6610    5.6100   -2.8920 hc        1 MOL      0.050999
     52 H24        -2.4060    5.6640   -2.9860 hc        1 MOL      0.050999
     53 N5         -3.2010    4.6990    0.6420 n         1 MOL     -0.350473
     54 C17        -4.4850    4.6060    1.3980 c3        1 MOL     -0.095562
     55 C18        -5.5080    3.6800    0.7580 c         1 MOL      0.498740
     56 O9         -6.7370    3.7120    1.1060 o         1 MOL     -0.571412
     57 H25        -2.3650    4.2530    0.9820 hn        1 MOL      0.226156
     58 H26        -4.9790    5.5800    1.4030 h1        1 MOL      0.111111
     59 H27        -4.4130    4.4110    2.4670 h1        1 MOL      0.111111
     60 N6         -5.0790    2.8400   -0.2510 n         1 MOL     -0.232563
     61 C19        -5.9640    2.0670   -1.0910 c3        1 MOL     -0.052680
     62 C20        -6.3250    0.6880   -0.4850 c         1 MOL      0.228076
     63 O10        -6.8990   -0.2090   -1.1610 o         1 MOL     -0.427439
     64 C21        -5.2570    1.9510   -2.5170 c3        1 MOL     -0.273089
     65 C22        -4.2630    0.7980   -2.7040 c         1 MOL      0.691755
     66 N7         -3.9070    0.4840   -3.9000 n         1 MOL     -0.669862
     67 O11        -3.7750    0.1800   -1.7550 o         1 MOL     -0.591912
     68 H28        -4.0970    2.6910   -0.4320 hn        1 MOL      0.225856
     69 H29        -6.8630    2.6670   -1.2300 h1        1 MOL      0.169483
     70 H30        -4.7110    2.8740   -2.7340 hc        1 MOL      0.091020
     71 H31        -6.0490    1.6400   -3.1910 hc        1 MOL      0.091020
     72 H32        -4.4080    0.9160   -4.6560 hn        1 MOL      0.331341
     73 H33        -3.2060   -0.2020   -4.1410 hn        1 MOL      0.331341
     74 N8         -6.1050    0.4710    0.8170 n         1 MOL     -0.115572
     75 C23        -6.6370   -0.6240    1.6250 c3        1 MOL     -0.286051
     76 C24        -5.8310   -1.9750    1.5320 c         1 MOL      0.546381
     77 O12        -6.3240   -2.8660    2.1560 o         1 MOL     -0.523784
     78 H34        -5.2960    0.9770    1.1460 hn        1 MOL      0.276822
     79 H35        -7.6830   -0.8210    1.3870 h1        1 MOL      0.142214
     80 H36        -6.7160   -0.2860    2.6570 h1        1 MOL      0.142214
     81 N9         -4.7070   -2.0180    0.7930 n         1 MOL     -0.228066
     82 C25        -3.6930   -3.1290    0.6730 c3        1 MOL      0.098432
     83 C26        -2.2310   -2.6170    0.7590 c         1 MOL      0.470534
     84 O13        -1.9980   -1.4180    0.4310 o         1 MOL     -0.670744
     85 C27        -3.8330   -3.8080   -0.7080 c3        1 MOL      0.068893
     86 C28        -5.1600   -4.5260   -0.8190 ca        1 MOL     -0.217012
     87 C29        -6.3790   -3.7570   -1.1220 ca        1 MOL     -0.063429
     88 C30        -5.3000   -5.8890   -0.4460 ca        1 MOL     -0.063429
     89 C31        -7.6310   -4.3130   -1.0000 ca        1 MOL     -0.229204
     90 C32        -6.5820   -6.4690   -0.5690 ca        1 MOL     -0.229204
     91 C33        -7.7730   -5.7030   -0.8050 ca        1 MOL      0.295516
     92 O14        -9.0070   -6.2830   -0.7490 oh        1 MOL     -0.412220
     93 H37        -4.4550   -1.1450    0.3550 hn        1 MOL      0.180530
     94 H38        -3.9610   -3.8860    1.4120 h1        1 MOL      0.040901
     95 H39        -3.0330   -4.5460   -0.7640 hc        1 MOL      0.024756
     96 H40        -3.8270   -3.0270   -1.4740 hc        1 MOL      0.024756
     97 H41        -6.3360   -2.7230   -1.4350 ha        1 MOL      0.101620
     98 H42        -4.4950   -6.5870   -0.2530 ha        1 MOL      0.101620
     99 H43        -8.5650   -3.8430   -1.2370 ha        1 MOL      0.122441
    100 H44        -6.5860   -7.5470   -0.4850 ha        1 MOL      0.122441
    101 H45        -8.8960   -7.2350   -0.7600 ho        1 MOL      0.309324
    102 N10        -1.2960   -3.5090    1.2070 n         1 MOL     -0.501413
    103 C34         0.1390   -3.2090    1.3820 c3        1 MOL     -0.064941
    104 C35         0.9270   -4.0540    0.3830 c         1 MOL      0.593337
    105 O15         0.8930   -5.2660    0.4540 o         1 MOL     -0.575639
    106 C36         0.6630   -3.4470    2.8050 c3        1 MOL      0.202702
    107 C37        -0.2220   -2.7690    3.8960 c3        1 MOL      0.129005
    108 C38         2.0440   -2.8580    2.7590 c3        1 MOL     -0.271222
    109 C39         0.0560   -3.2070    5.3660 c3        1 MOL     -0.286060
    110 H46        -1.6730   -4.4360    1.3740 hn        1 MOL      0.326513
    111 H47         0.3440   -2.1650    1.1630 h1        1 MOL      0.161695
    112 H48         0.7320   -4.5170    2.9760 hc        1 MOL     -0.019550
    113 H49        -1.2590   -3.0740    3.7460 hc        1 MOL     -0.017338
    114 H50        -0.1330   -1.6950    3.8480 hc        1 MOL     -0.017338
    115 H51         2.7200   -3.2840    2.0140 hc        1 MOL      0.046188
    116 H52         1.8890   -1.8280    2.4530 hc        1 MOL      0.046188
    117 H53         2.5780   -2.9100    3.7090 hc        1 MOL      0.046188
    118 H54        -0.7240   -2.8940    6.0540 hc        1 MOL      0.066828
    119 H55         0.1900   -4.2840    5.3830 hc        1 MOL      0.066828
    120 H56         1.0380   -2.8650    5.7050 hc        1 MOL      0.066828
    121 N11         1.6820   -3.4240   -0.4660 n         1 MOL     -0.397685
    122 C40         2.6300   -4.0670   -1.3610 c3        1 MOL      0.089417
    123 C41         4.0730   -3.8660   -0.9340 c         1 MOL      0.546368
    124 O16         4.4100   -2.9220   -0.2550 o         1 MOL     -0.508217
    125 C42         2.5280   -3.3990   -2.7310 c3        1 MOL      0.051316
    126 O17         1.2090   -3.5690   -3.3740 oh        1 MOL     -0.572715
    127 H57         1.4680   -2.4490   -0.6470 hn        1 MOL      0.302635
    128 H58         2.4920   -5.1510   -1.4050 h1        1 MOL      0.045503
    129 H59         3.3620   -3.6590   -3.3860 h1        1 MOL      0.048986
    130 H60         2.6340   -2.3250   -2.5600 h1        1 MOL      0.048986
    131 H61         1.2300   -4.1960   -4.1090 ho        1 MOL      0.402743
    132 N12         4.9860   -4.6460   -1.4180 n         1 MOL     -0.420386
    133 C43         6.3400   -4.7360   -0.8110 c3        1 MOL      0.044272
    134 C44         7.2710   -3.5010   -1.0300 c         1 MOL      0.444742
    135 O18         8.1600   -3.1980   -0.2730 o         1 MOL     -0.479566
    136 C45         7.0240   -5.9900   -1.3580 c3        1 MOL     -0.372969
    137 H62         4.7730   -5.4190   -2.0370 hn        1 MOL      0.274126
    138 H63         6.2330   -4.8250    0.2650 h1        1 MOL      0.115388
    139 H64         8.0290   -6.0850   -0.9490 hc        1 MOL      0.121200
    140 H65         6.4380   -6.8540   -1.0560 hc        1 MOL      0.121200
    141 H66         7.0700   -5.9600   -2.4510 hc        1 MOL      0.121200
    142 N13         6.9720   -2.6780   -2.0400 n         1 MOL     -0.352306
    143 C46         7.5620   -1.3040   -2.2610 c3        1 MOL      0.130850
    144 C47         7.2250   -0.3950   -1.0980 c         1 MOL      0.312603
    145 O19         8.0630    0.3400   -0.5790 o         1 MOL     -0.501138
    146 C48         7.1750   -0.7040   -3.6080 c3        1 MOL     -0.305627
    147 H67         6.1500   -2.9570   -2.5510 hn        1 MOL      0.197473
    148 H68         8.6460   -1.4230   -2.2520 h1        1 MOL      0.089509
    149 H69         6.1120   -0.4800   -3.6240 hc        1 MOL      0.088627
    150 H70         7.6590    0.2530   -3.8230 hc        1 MOL      0.088627
    151 H71         7.4710   -1.4870   -4.3010 hc        1 MOL      0.088627
    152 N14         5.9420   -0.4770   -0.6150 n         1 MOL      0.102753
    153 C49         5.3820    0.2760    0.4900 c3        1 MOL     -0.607062
    154 C50         6.0530   -0.1580    1.7910 c         1 MOL      0.777692
    155 O20         6.3970    0.6970    2.6230 o         1 MOL     -0.571501
    156 C51         3.8380    0.3310    0.5270 c3        1 MOL      0.274740
    157 C52         3.1680    0.2970   -0.8070 c3        1 MOL     -0.026953
    158 C53         1.7510    0.4140   -0.6500 c         1 MOL      0.769564
    159 O21         1.1430    1.5180   -0.9380 o         1 MOL     -0.733030
    160 O22         1.0380   -0.6070   -0.5660 o         1 MOL     -0.733030
    161 H72         5.3040   -0.9060   -1.2690 hn        1 MOL      0.138507
    162 H73         5.6390    1.3030    0.2130 h1        1 MOL      0.125316
    163 H74         3.5950    1.2570    1.0630 hc        1 MOL     -0.005357
    164 H75         3.4690   -0.4710    1.1550 hc        1 MOL     -0.005357
    165 H76         3.3480   -0.6910   -1.2520 hc        1 MOL     -0.038129
    166 H77         3.5490    1.0520   -1.4870 hc        1 MOL     -0.038129
    167 N15         6.1440   -1.4740    2.0440 n         1 MOL     -0.392417
    168 C54         7.1200   -2.0030    2.9940 c3        1 MOL     -0.095744
    169 H78         7.6250   -1.1770    3.4940 h1        1 MOL      0.068812
    170 H79         6.6100   -2.6170    3.7350 h1        1 MOL      0.068812
    171 H80         7.8540   -2.6080    2.4620 h1        1 MOL      0.068812
    172 H81         5.9120   -2.1740    1.3480 hn        1 MOL      0.274709
    173 Ca1        -1.1960    0.4880   -1.2270 Ca        1 MOL      1.716820
    174 O23        -0.5350    1.1050   -3.7470 oh        1 MOL     -0.813944
    175 H82        -0.5300    0.6420   -4.5900 ho        1 MOL      0.379750
    176 H83        -1.0170    1.9130   -3.9270 ho        1 MOL      0.379750
    177 O24        -1.0680   -1.8460   -3.0160 oh        1 MOL     -0.813944
    178 H84        -0.2100   -2.1210   -3.3440 ho        1 MOL      0.379750
    179 H85        -1.5610   -2.6560   -2.9320 ho        1 MOL      0.379750
@<TRIPOS>BOND
     1    1    2 1   
     2    1    4 1   
     3    1    5 1   
     4    1    6 1   
     5    2    3 2   
     6    2    7 1   
     7    7    8 1   
     8    7   15 1   
     9    8    9 1   
    10    8   11 1   
    11    8   16 1   
    12    9   10 2   
    13    9   19 1   
    14   11   12 1   
    15   11   17 1   
    16   11   18 1   
    17   12   13 1   
    18   12   14 1   
    19   19   20 1   
    20   19   28 1   
    21   20   21 1   
    22   20   23 1   
    23   20   29 1   
    24   21   22 2   
    25   21   41 1   
    26   23   24 1   
    27   23   30 1   
    28   23   31 1   
    29   24   25 1   
    30   24   32 1   
    31   24   33 1   
    32   25   26 1   
    33   25   34 1   
    34   25   35 1   
    35   26   27 1   
    36   26   36 1   
    37   26   37 1   
    38   27   38 1   
    39   27   39 1   
    40   27   40 1   
    41   41   42 1   
    42   41   49 1   
    43   42   43 1   
    44   42   45 1   
    45   42   50 1   
    46   43   44 2   
    47   43   53 1   
    48   45   46 1   
    49   45   51 1   
    50   45   52 1   
    51   46   47 1   
    52   46   48 1   
    53   53   54 1   
    54   53   57 1   
    55   54   55 1   
    56   54   58 1   
    57   54   59 1   
    58   55   56 2   
    59   55   60 1   
    60   60   61 1   
    61   60   68 1   
    62   61   62 1   
    63   61   64 1   
    64   61   69 1   
    65   62   63 2   
    66   62   74 1   
    67   64   65 1   
    68   64   70 1   
    69   64   71 1   
    70   65   66 1   
    71   65   67 2   
    72   66   72 1   
    73   66   73 1   
    74   74   75 1   
    75   74   78 1   
    76   75   76 1   
    77   75   79 1   
    78   75   80 1   
    79   76   77 2   
    80   76   81 1   
    81   81   82 1   
    82   81   93 1   
    83   82   83 1   
    84   82   85 1   
    85   82   94 1   
    86   83   84 2   
    87   83  102 1   
    88   85   86 1   
    89   85   95 1   
    90   85   96 1   
    91   86   87 ar  
    92   86   88 ar  
    93   87   89 ar  
    94   87   97 1   
    95   88   90 ar  
    96   88   98 1   
    97   89   91 ar  
    98   89   99 1   
    99   90   91 ar  
   100   90  100 1   
   101   91   92 1   
   102   92  101 1   
   103  102  103 1   
   104  102  110 1   
   105  103  104 1   
   106  103  106 1   
   107  103  111 1   
   108  104  105 2   
   109  104  121 1   
   110  106  107 1   
   111  106  108 1   
   112  106  112 1   
   113  107  109 1   
   114  107  113 1   
   115  107  114 1   
   116  108  115 1   
   117  108  116 1   
   118  108  117 1   
   119  109  118 1   
   120  109  119 1   
   121  109  120 1   
   122  121  122 1   
   123  121  127 1   
   124  122  123 1   
   125  122  125 1   
   126  122  128 1   
   127  123  124 2   
   128  123  132 1   
   129  125  126 1   
   130  125  129 1   
   131  125  130 1   
   132  126  131 1   
   133  132  133 1   
   134  132  137 1   
   135  133  134 1   
   136  133  136 1   
   137  133  138 1   
   138  134  135 2   
   139  134  142 1   
   140  136  139 1   
   141  136  140 1   
   142  136  141 1   
   143  142  143 1   
   144  142  147 1   
   145  143  144 1   
   146  143  146 1   
   147  143  148 1   
   148  144  145 2   
   149  144  152 1   
   150  146  149 1   
   151  146  150 1   
   152  146  151 1   
   153  152  153 1   
   154  152  161 1   
   155  153  154 1   
   156  153  156 1   
   157  153  162 1   
   158  154  155 2   
   159  154  167 1   
   160  156  157 1   
   161  156  163 1   
   162  156  164 1   
   163  157  158 1   
   164  157  165 1   
   165  157  166 1   
   166  158  159 1   
   167  158  160 1   
   168  167  168 1   
   169  167  172 1   
   170  168  169 1   
   171  168  170 1   
   172  168  171 1   
   173  174  175 1   
   174  174  176 1   
   175  177  178 1   
   176  177  179 1   
@<TRIPOS>SUBSTRUCTURE
     1 MOL         1 TEMP              0 ****  ****    0 ROOT
