@<TRIPOS>MOLECULE
MOL
  189   185     1     0     0
SMALL
resp


@<TRIPOS>ATOM
      1 C1          0.1910    1.5830    5.6160 c3        1 MOL     -0.368445
      2 C2         -0.5110    1.4760    4.2490 c         1 MOL      0.708821
      3 O1          0.0890    2.1030    3.4110 o         1 MOL     -0.595078
      4 H1         -0.3360    0.9660    6.3440 hc        1 MOL      0.091552
      5 H2          1.2210    1.2350    5.5240 hc        1 MOL      0.091552
      6 H3          0.1860    2.6200    5.9470 hc        1 MOL      0.091552
      7 N1         -1.6780    0.8630    4.0230 n         1 MOL     -0.579869
      8 C3         -2.4060    0.8660    2.7560 c3        1 MOL      0.050128
      9 C4         -2.9080    2.3260    2.4600 c         1 MOL      0.486422
     10 O2         -3.6860    2.9030    3.2350 o         1 MOL     -0.557857
     11 C5         -3.5400   -0.0930    2.8030 c3        1 MOL     -0.175549
     12 C6         -4.3470   -0.0310    1.5140 c         1 MOL      0.736617
     13 O3         -3.7010    0.1950    0.4620 o         1 MOL     -0.680727
     14 O4         -5.5450   -0.3070    1.5100 o         1 MOL     -0.680727
     15 H4         -2.0230    0.3480    4.8200 hn        1 MOL      0.323624
     16 H5         -1.6570    0.6490    2.0030 h1        1 MOL      0.069608
     17 H6         -4.0890    0.0820    3.7240 hc        1 MOL      0.051589
     18 H7         -3.2190   -1.1310    2.9090 hc        1 MOL      0.051589
     19 N2         -2.4300    2.9210    1.3560 n         1 MOL     -0.052897
     20 C7         -2.4200    4.3800    1.2440 c3        1 MOL     -0.014913
     21 C8         -3.1770    4.9350    0.0650 c         1 MOL      0.266774
     22 O5         -3.8370    5.9670    0.1960 o         1 MOL     -0.535099
     23 C9         -0.8890    4.9140    1.2970 c3        1 MOL     -0.172606
     24 C10        -0.7560    6.4300    1.0660 c3        1 MOL     -0.061164
     25 C11         0.7850    6.7370    1.1070 c3        1 MOL     -0.013253
     26 C12         1.1740    8.2100    1.0540 c3        1 MOL     -0.045996
     27 N3          0.7680    9.0040    2.2760 n4        1 MOL     -0.395537
     28 H8         -1.8910    2.3960    0.6800 hn        1 MOL      0.056739
     29 H9         -2.8970    4.8020    2.1250 h1        1 MOL      0.095427
     30 H10        -0.2680    4.2690    0.6710 hc        1 MOL      0.105320
     31 H11        -0.5000    4.6950    2.2910 hc        1 MOL      0.105320
     32 H12        -1.2550    7.0690    1.7920 hc        1 MOL      0.049069
     33 H13        -1.0840    6.6720    0.0550 hc        1 MOL      0.049069
     34 H14         1.2670    6.2090    0.2800 hc        1 MOL      0.048562
     35 H15         1.0940    6.3150    2.0670 hc        1 MOL      0.048562
     36 H16         0.7000    8.6220    0.1700 hx        1 MOL      0.105257
     37 H17         2.2640    8.2520    0.9350 hx        1 MOL      0.105257
     38 H18         1.2370    8.6090    3.0740 hn        1 MOL      0.339954
     39 H19         0.9060   10.0020    2.2100 hn        1 MOL      0.339954
     40 H20        -0.2190    8.8720    2.4340 hn        1 MOL      0.339954
     41 N4         -3.1700    4.2280   -1.0500 n         1 MOL     -0.091672
     42 C13        -4.0050    4.4120   -2.2280 c3        1 MOL      0.016199
     43 C14        -5.4050    3.7730   -1.9970 c         1 MOL      0.498564
     44 O6         -6.4190    4.2010   -2.5890 o         1 MOL     -0.555090
     45 C15        -3.1900    3.8760   -3.5220 c3        1 MOL     -0.302410
     46 C16        -2.8190    2.4040   -3.4810 c         1 MOL      0.824641
     47 O7         -3.0450    1.7320   -2.4530 o         1 MOL     -0.714755
     48 O8         -2.2430    1.8300   -4.4620 o         1 MOL     -0.714755
     49 H21        -2.5020    3.4650   -1.0490 hn        1 MOL      0.135966
     50 H22        -4.1170    5.4920   -2.2610 h1        1 MOL      0.067468
     51 H23        -2.2870    4.4410   -3.7250 hc        1 MOL      0.079405
     52 H24        -3.8550    3.9150   -4.3840 hc        1 MOL      0.079405
     53 N5         -5.5280    2.8210   -1.0600 n         1 MOL      0.026248
     54 C17        -6.7360    2.1940   -0.6350 c3        1 MOL     -0.362750
     55 C18        -7.1090    0.9850   -1.4810 c         1 MOL      0.703365
     56 O9         -7.7130    1.1290   -2.5550 o         1 MOL     -0.541928
     57 H25        -4.6420    2.4620   -0.7440 hn        1 MOL      0.027851
     58 H26        -7.6220    2.7860   -0.3960 h1        1 MOL      0.129157
     59 H27        -6.4700    1.7920    0.3430 h1        1 MOL      0.129157
     60 N6         -6.7480   -0.2380   -1.0810 n         1 MOL     -0.514996
     61 C19        -7.1270   -1.4670   -1.8130 c3        1 MOL      0.009336
     62 C20        -7.0500   -2.7330   -0.8800 c         1 MOL      0.423586
     63 O10        -7.2050   -3.8840   -1.3140 o         1 MOL     -0.504908
     64 C21        -6.1520   -1.6600   -3.0050 c3        1 MOL     -0.227648
     65 C22        -4.6290   -1.7240   -2.6600 c         1 MOL      0.684626
     66 O11        -3.8330   -1.2380   -3.5160 o         1 MOL     -0.682364
     67 O12        -4.1770   -2.0920   -1.5530 o         1 MOL     -0.682364
     68 H28        -6.1070   -0.2620   -0.2920 hn        1 MOL      0.249299
     69 H29        -8.1320   -1.2670   -2.1710 h1        1 MOL      0.108871
     70 H30        -6.3620   -0.8760   -3.7230 hc        1 MOL      0.091074
     71 H31        -6.3930   -2.6090   -3.4680 hc        1 MOL      0.091074
     72 N7         -6.6700   -2.5900    0.4220 n         1 MOL     -0.332260
     73 C23        -6.4800   -3.6570    1.4220 c3        1 MOL     -0.034342
     74 C24        -5.2140   -4.4170    1.3380 c         1 MOL      0.555421
     75 O13        -5.2670   -5.5810    1.7820 o         1 MOL     -0.585781
     76 H32        -6.3560   -1.6790    0.7250 hn        1 MOL      0.271717
     77 H33        -7.2780   -4.3990    1.3210 h1        1 MOL      0.068631
     78 H34        -6.5670   -3.2880    2.4440 h1        1 MOL      0.068631
     79 N8         -4.1470   -3.8430    0.7570 n         1 MOL     -0.256775
     80 C25        -2.7880   -4.4620    0.5650 c3        1 MOL     -0.334857
     81 C26        -1.5610   -3.5120    0.7140 c         1 MOL      0.734540
     82 O14        -1.7260   -2.3780    0.3450 o         1 MOL     -0.595755
     83 C27        -2.5290   -5.1420   -0.7740 c3        1 MOL      0.581338
     84 C28        -2.9630   -6.6380   -0.6440 c3        1 MOL     -0.464059
     85 O15        -3.3560   -4.5860   -1.7870 oh        1 MOL     -0.699599
     86 H35        -4.3470   -2.9120    0.4160 hn        1 MOL      0.222511
     87 H36        -2.7290   -5.2500    1.3220 h1        1 MOL      0.114168
     88 H37        -1.5070   -5.1250   -1.1590 h1        1 MOL     -0.032257
     89 H38        -3.6890   -3.7250   -1.5410 ho        1 MOL      0.494866
     90 H39        -3.9560   -6.7400   -0.2050 hc        1 MOL      0.107841
     91 H40        -2.9210   -7.1200   -1.6220 hc        1 MOL      0.107841
     92 H41        -2.2620   -7.1720   -0.0000 hc        1 MOL      0.107841
     93 N9         -0.4700   -3.9580    1.3980 n         1 MOL     -0.673442
     94 C29         0.7170   -3.1610    1.6970 c3        1 MOL      0.076896
     95 C30         1.7870   -3.6530    0.6770 c         1 MOL      0.387750
     96 O16         2.2470   -4.7700    0.6650 o         1 MOL     -0.508026
     97 C31         1.0380   -3.2810    3.2250 c3        1 MOL      0.152276
     98 C32         0.0350   -2.5630    4.1350 c3        1 MOL     -0.036408
     99 C33         2.3660   -2.5060    3.4670 c3        1 MOL     -0.233263
    100 C34        -0.1330   -3.2450    5.5510 c3        1 MOL     -0.112698
    101 H42        -0.4580   -4.8820    1.7980 hn        1 MOL      0.331753
    102 H43         0.4450   -2.1310    1.4790 h1        1 MOL      0.095774
    103 H44         1.2720   -4.3000    3.5260 hc        1 MOL      0.025490
    104 H45        -0.9570   -2.6530    3.7050 hc        1 MOL      0.024430
    105 H46         0.3080   -1.5050    4.1610 hc        1 MOL      0.024430
    106 H47         2.6620   -2.3610    4.5120 hc        1 MOL      0.028655
    107 H48         3.1370   -3.1280    3.0080 hc        1 MOL      0.028655
    108 H49         2.4040   -1.5520    2.9390 hc        1 MOL      0.028655
    109 H50        -0.2360   -4.3300    5.5110 hc        1 MOL      0.026557
    110 H51         0.6230   -2.9470    6.2720 hc        1 MOL      0.026557
    111 H52        -0.9990   -2.7830    6.0410 hc        1 MOL      0.026557
    112 N10         2.2210   -2.6840   -0.1620 n         1 MOL     -0.118169
    113 C35         3.5030   -2.7910   -0.9360 c3        1 MOL      0.015649
    114 C36         4.7610   -2.5220   -0.1030 c         1 MOL      0.506788
    115 O17         4.6790   -1.9780    1.0080 o         1 MOL     -0.406479
    116 C37         3.4960   -2.0510   -2.2390 c3        1 MOL      0.097887
    117 C38         2.2910   -2.0570   -3.1380 c3        1 MOL     -0.277181
    118 O18         3.7570   -0.6940   -1.9230 oh        1 MOL     -0.415820
    119 H53         1.6960   -1.8390   -0.3140 hn        1 MOL      0.164860
    120 H54         3.6630   -3.8460   -1.1080 h1        1 MOL      0.040437
    121 H55         4.3280   -2.3830   -2.8660 h1        1 MOL      0.044383
    122 H56         3.1800   -0.1640   -2.4780 ho        1 MOL      0.367933
    123 H57         1.4950   -1.5130   -2.6220 hc        1 MOL      0.090598
    124 H58         2.5480   -1.5070   -4.0410 hc        1 MOL      0.090598
    125 H59         2.0260   -3.0880   -3.3840 hc        1 MOL      0.090598
    126 N11         5.9330   -2.9220   -0.5770 n         1 MOL     -0.458239
    127 C39         7.1630   -2.4770   -0.0140 c3        1 MOL      0.001692
    128 C40         7.3220   -0.9680    0.1090 c         1 MOL      0.322415
    129 O19         8.0590   -0.5500    0.9550 o         1 MOL     -0.487603
    130 C41         8.3240   -2.8190   -0.9160 c3        1 MOL      0.260410
    131 C42         8.7320   -4.2380   -0.7260 c3        1 MOL     -0.368428
    132 O20         8.0590   -2.5280   -2.2730 oh        1 MOL     -0.632410
    133 H60         5.9580   -3.2490   -1.5320 hn        1 MOL      0.303065
    134 H61         7.3110   -2.8550    0.9980 h1        1 MOL      0.136978
    135 H62         9.0970   -2.1970   -0.4620 h1        1 MOL      0.048756
    136 H63         8.8400   -2.7310   -2.7870 ho        1 MOL      0.416771
    137 H64         8.9160   -4.4080    0.3360 hc        1 MOL      0.102834
    138 H65         8.1110   -4.9390   -1.2930 hc        1 MOL      0.102834
    139 H66         9.6890   -4.3620   -1.2380 hc        1 MOL      0.102834
    140 N12         6.7160   -0.1380   -0.7550 n         1 MOL     -0.167685
    141 C43         6.7810    1.2910   -0.6130 c3        1 MOL     -0.015343
    142 C44         5.8580    1.7240    0.5310 c         1 MOL      0.344052
    143 O21         6.2090    2.6170    1.2770 o         1 MOL     -0.501517
    144 C45         6.1900    2.0240   -1.9120 c3        1 MOL     -0.312765
    145 C46         6.9050    1.6580   -3.2020 c3        1 MOL      0.026202
    146 C47         8.4190    1.9010   -3.3400 c3        1 MOL     -0.117696
    147 C48         8.8000    1.8250   -4.8520 c3        1 MOL      0.066169
    148 N13        10.2940    2.0950   -4.9730 n4        1 MOL     -0.347524
    149 H67         6.0520   -0.4540   -1.4430 hn        1 MOL      0.140430
    150 H68         7.8450    1.5070   -0.4630 h1        1 MOL      0.109436
    151 H69         6.2990    3.0920   -1.7320 hc        1 MOL      0.126513
    152 H70         5.1400    1.7280   -1.9910 hc        1 MOL      0.126513
    153 H71         6.2630    2.0180   -4.0060 hc        1 MOL      0.029885
    154 H72         6.7440    0.6110   -3.4420 hc        1 MOL      0.029885
    155 H73         9.0460    1.1810   -2.8010 hc        1 MOL      0.066461
    156 H74         8.6520    2.9030   -2.9710 hc        1 MOL      0.066461
    157 H75         8.2540    2.5890   -5.3980 hx        1 MOL      0.083941
    158 H76         8.4160    0.8930   -5.2700 hx        1 MOL      0.083941
    159 H77        10.6260    1.8720   -5.9070 hn        1 MOL      0.297933
    160 H78        10.4860    3.0670   -4.7620 hn        1 MOL      0.297933
    161 H79        10.8560    1.5740   -4.3160 hn        1 MOL      0.297933
    162 N14         4.7150    1.0340    0.7140 n         1 MOL      0.014647
    163 C49         3.7190    1.3980    1.7240 c3        1 MOL     -0.025576
    164 C50         4.2050    1.0440    3.1260 c         1 MOL      0.356158
    165 O22         4.0440    1.8680    4.1000 o         1 MOL     -0.533212
    166 C51         2.4320    0.7530    1.2870 c3        1 MOL      0.170947
    167 C52         1.6860    1.5780    0.2310 c3        1 MOL     -0.030793
    168 C53         0.4640    0.8320   -0.1290 c         1 MOL      0.527018
    169 O23         0.4250   -0.3360   -0.4880 o         1 MOL     -0.637061
    170 O24        -0.5920    1.4790   -0.0550 o         1 MOL     -0.637061
    171 H80         4.4120    0.4410   -0.0430 hn        1 MOL     -0.051587
    172 H81         3.5840    2.4750    1.7690 h1        1 MOL      0.040524
    173 H82         1.8620    0.7060    2.2170 hc        1 MOL      0.025525
    174 H83         2.6010   -0.2850    1.0340 hc        1 MOL      0.025525
    175 H84         2.3780    1.7140   -0.6100 hc        1 MOL     -0.018407
    176 H85         1.5170    2.5500    0.6810 hc        1 MOL     -0.018407
    177 N15         4.8910   -0.1250    3.3110 n         1 MOL     -0.018252
    178 C54         5.8110   -0.3250    4.4440 c3        1 MOL     -0.291404
    179 H86         5.2900   -0.8480    5.2460 h1        1 MOL      0.106418
    180 H87         6.6650   -0.9190    4.1190 h1        1 MOL      0.106418
    181 H88         6.1570    0.6420    4.8080 h1        1 MOL      0.106418
    182 H89         4.8600   -0.8680    2.6190 hn        1 MOL      0.143720
    183 Ca1        -2.1460   -0.3600   -1.4570 Ca        1 MOL      1.740372
    184 O25        -0.5160    0.0540   -3.6190 oh        1 MOL     -0.874732
    185 H90        -1.1230    0.6770   -4.0010 ho        1 MOL      0.398479
    186 H91         0.0580   -0.2170   -4.3380 ho        1 MOL      0.398479
    187 O26        -1.3500   -2.7420   -2.9240 oh        1 MOL     -0.874732
    188 H92        -2.1650   -2.9510   -3.3770 ho        1 MOL      0.398479
    189 H93        -0.6640   -2.9220   -3.5680 ho        1 MOL      0.398479
@<TRIPOS>BOND
     1    1    2 1   
     2    1    4 1   
     3    1    5 1   
     4    1    6 1   
     5    2    3 2   
     6    2    7 1   
     7    7    8 1   
     8    7   15 1   
     9    8    9 1   
    10    8   11 1   
    11    8   16 1   
    12    9   10 2   
    13    9   19 1   
    14   11   12 1   
    15   11   17 1   
    16   11   18 1   
    17   12   13 1   
    18   12   14 1   
    19   19   20 1   
    20   19   28 1   
    21   20   21 1   
    22   20   23 1   
    23   20   29 1   
    24   21   22 2   
    25   21   41 1   
    26   23   24 1   
    27   23   30 1   
    28   23   31 1   
    29   24   25 1   
    30   24   32 1   
    31   24   33 1   
    32   25   26 1   
    33   25   34 1   
    34   25   35 1   
    35   26   27 1   
    36   26   36 1   
    37   26   37 1   
    38   27   38 1   
    39   27   39 1   
    40   27   40 1   
    41   41   42 1   
    42   41   49 1   
    43   42   43 1   
    44   42   45 1   
    45   42   50 1   
    46   43   44 2   
    47   43   53 1   
    48   45   46 1   
    49   45   51 1   
    50   45   52 1   
    51   46   47 1   
    52   46   48 1   
    53   53   54 1   
    54   53   57 1   
    55   54   55 1   
    56   54   58 1   
    57   54   59 1   
    58   55   56 2   
    59   55   60 1   
    60   60   61 1   
    61   60   68 1   
    62   61   62 1   
    63   61   64 1   
    64   61   69 1   
    65   62   63 2   
    66   62   72 1   
    67   64   65 1   
    68   64   70 1   
    69   64   71 1   
    70   65   66 1   
    71   65   67 1   
    72   72   73 1   
    73   72   76 1   
    74   73   74 1   
    75   73   77 1   
    76   73   78 1   
    77   74   75 2   
    78   74   79 1   
    79   79   80 1   
    80   79   86 1   
    81   80   81 1   
    82   80   83 1   
    83   80   87 1   
    84   81   82 2   
    85   81   93 1   
    86   83   84 1   
    87   83   85 1   
    88   83   88 1   
    89   84   90 1   
    90   84   91 1   
    91   84   92 1   
    92   85   89 1   
    93   93   94 1   
    94   93  101 1   
    95   94   95 1   
    96   94   97 1   
    97   94  102 1   
    98   95   96 2   
    99   95  112 1   
   100   97   98 1   
   101   97   99 1   
   102   97  103 1   
   103   98  100 1   
   104   98  104 1   
   105   98  105 1   
   106   99  106 1   
   107   99  107 1   
   108   99  108 1   
   109  100  109 1   
   110  100  110 1   
   111  100  111 1   
   112  112  113 1   
   113  112  119 1   
   114  113  114 1   
   115  113  116 1   
   116  113  120 1   
   117  114  115 2   
   118  114  126 1   
   119  116  117 1   
   120  116  118 1   
   121  116  121 1   
   122  117  123 1   
   123  117  124 1   
   124  117  125 1   
   125  118  122 1   
   126  126  127 1   
   127  126  133 1   
   128  127  128 1   
   129  127  130 1   
   130  127  134 1   
   131  128  129 2   
   132  128  140 1   
   133  130  131 1   
   134  130  132 1   
   135  130  135 1   
   136  131  137 1   
   137  131  138 1   
   138  131  139 1   
   139  132  136 1   
   140  140  141 1   
   141  140  149 1   
   142  141  142 1   
   143  141  144 1   
   144  141  150 1   
   145  142  143 2   
   146  142  162 1   
   147  144  145 1   
   148  144  151 1   
   149  144  152 1   
   150  145  146 1   
   151  145  153 1   
   152  145  154 1   
   153  146  147 1   
   154  146  155 1   
   155  146  156 1   
   156  147  148 1   
   157  147  157 1   
   158  147  158 1   
   159  148  159 1   
   160  148  160 1   
   161  148  161 1   
   162  162  163 1   
   163  162  171 1   
   164  163  164 1   
   165  163  166 1   
   166  163  172 1   
   167  164  165 2   
   168  164  177 1   
   169  166  167 1   
   170  166  173 1   
   171  166  174 1   
   172  167  168 1   
   173  167  175 1   
   174  167  176 1   
   175  168  169 1   
   176  168  170 1   
   177  177  178 1   
   178  177  182 1   
   179  178  179 1   
   180  178  180 1   
   181  178  181 1   
   182  184  185 1   
   183  184  186 1   
   184  187  188 1   
   185  187  189 1   
@<TRIPOS>SUBSTRUCTURE
     1 MOL         1 TEMP              0 ****  ****    0 ROOT
