@<TRIPOS>MOLECULE
MOL
  189   185     1     0     0
SMALL
resp


@<TRIPOS>ATOM
      1 C1          0.4700    2.3660    5.7480 c3        1 MOL     -0.292284
      2 C2          0.0470    2.1710    4.2830 c         1 MOL      0.816477
      3 O1          0.8290    2.3260    3.4130 o         1 MOL     -0.658561
      4 H1          0.8610    1.4270    6.1410 hc        1 MOL      0.069551
      5 H2          1.2420    3.1320    5.8060 hc        1 MOL      0.069551
      6 H3         -0.3940    2.6730    6.3380 hc        1 MOL      0.069551
      7 N1         -1.2150    1.8430    4.0060 n         1 MOL     -0.729247
      8 C3         -1.7780    1.6270    2.7000 c3        1 MOL      0.297733
      9 C4         -2.1020    3.0080    2.1560 c         1 MOL      0.492134
     10 O2         -2.7430    3.8240    2.7670 o         1 MOL     -0.577674
     11 C5         -2.9850    0.6350    2.9190 c3        1 MOL     -0.317669
     12 C6         -3.6990    0.1840    1.6220 c         1 MOL      0.800400
     13 O3         -4.5730   -0.7080    1.6520 o         1 MOL     -0.702065
     14 O4         -3.2810    0.5680    0.5200 o         1 MOL     -0.702065
     15 H4         -1.9120    1.9320    4.7410 hn        1 MOL      0.335225
     16 H5         -1.1230    1.0640    2.0350 h1        1 MOL      0.032640
     17 H6         -3.7530    1.1330    3.5130 hc        1 MOL      0.075748
     18 H7         -2.6000   -0.2370    3.4520 hc        1 MOL      0.075748
     19 N2         -1.4940    3.3310    0.9810 n         1 MOL     -0.132292
     20 C7         -1.4450    4.7430    0.4940 c3        1 MOL     -0.051050
     21 C8         -2.4460    5.0170   -0.6190 c         1 MOL      0.485255
     22 O5         -2.9490    6.1830   -0.6840 o         1 MOL     -0.568721
     23 C9          0.0850    5.0330    0.2100 c3        1 MOL      0.197165
     24 C10         0.4390    6.4390   -0.2600 c3        1 MOL     -0.113283
     25 C11         0.1880    7.5560    0.7570 c3        1 MOL     -0.227829
     26 C12         0.9360    7.3120    2.0060 c3        1 MOL      0.262001
     27 N3          0.7030    8.4960    2.9130 n4        1 MOL     -0.500571
     28 H8         -1.0210    2.6250    0.4390 hn        1 MOL      0.044441
     29 H9         -1.7650    5.5120    1.1820 h1        1 MOL      0.102869
     30 H10         0.5140    4.3690   -0.5310 hc        1 MOL     -0.024066
     31 H11         0.6220    4.8250    1.1380 hc        1 MOL     -0.024066
     32 H12        -0.0770    6.6540   -1.1960 hc        1 MOL      0.026642
     33 H13         1.4660    6.5300   -0.6230 hc        1 MOL      0.026642
     34 H14        -0.8700    7.6230    0.9840 hc        1 MOL      0.083281
     35 H15         0.5840    8.4310    0.2480 hc        1 MOL      0.083281
     36 H16         1.9810    7.1460    1.7200 hx        1 MOL      0.020795
     37 H17         0.6170    6.4060    2.5020 hx        1 MOL      0.020795
     38 H18        -0.2780    8.7310    2.8970 hn        1 MOL      0.359057
     39 H19         1.0100    8.3140    3.8580 hn        1 MOL      0.359057
     40 H20         1.2510    9.2790    2.5970 hn        1 MOL      0.359057
     41 N4         -2.8700    3.9590   -1.4160 n         1 MOL     -0.379172
     42 C13        -4.0550    3.8900   -2.2700 c3        1 MOL      0.028805
     43 C14        -5.3070    3.2040   -1.7330 c         1 MOL      0.405465
     44 O6         -6.3690    3.3160   -2.3260 o         1 MOL     -0.498592
     45 C15        -3.5790    3.3630   -3.6250 c3        1 MOL     -0.165090
     46 C16        -2.9950    1.9420   -3.5480 c         1 MOL      0.690868
     47 O7         -2.3850    1.4980   -4.5250 o         1 MOL     -0.675656
     48 O8         -2.9270    1.3520   -2.4370 o         1 MOL     -0.675656
     49 H21        -2.4620    3.0790   -1.1660 hn        1 MOL      0.233511
     50 H22        -4.2770    4.9190   -2.5420 h1        1 MOL      0.093595
     51 H23        -2.8280    4.0310   -4.0510 hc        1 MOL      0.057644
     52 H24        -4.3780    3.5780   -4.3330 hc        1 MOL      0.057644
     53 N5         -5.1760    2.4920   -0.6500 n         1 MOL     -0.104427
     54 C17        -6.2580    2.0230    0.1900 c3        1 MOL     -0.147347
     55 C18        -7.0070    0.8830   -0.4460 c         1 MOL      0.487836
     56 O9         -8.1770    0.9090   -0.7540 o         1 MOL     -0.547480
     57 H25        -4.3050    2.0550   -0.3970 hn        1 MOL      0.070354
     58 H26        -7.0190    2.7810    0.3730 h1        1 MOL      0.085977
     59 H27        -5.8790    1.7400    1.1800 h1        1 MOL      0.085977
     60 N6         -6.2360   -0.1760   -0.9060 n         1 MOL     -0.108792
     61 C19        -6.8260   -1.3680   -1.5380 c3        1 MOL     -0.013974
     62 C20        -7.0290   -2.6100   -0.6690 c         1 MOL      0.367902
     63 O10        -7.6390   -3.6330   -1.1230 o         1 MOL     -0.537655
     64 C21        -6.0380   -1.6860   -2.8170 c3        1 MOL     -0.315159
     65 C22        -4.5370   -1.8690   -2.4740 c         1 MOL      0.773645
     66 O11        -3.7770   -1.4700   -3.3590 o         1 MOL     -0.671297
     67 O12        -4.1130   -2.2180   -1.3460 o         1 MOL     -0.671297
     68 H28        -5.2600   -0.1300   -0.6370 hn        1 MOL      0.046857
     69 H29        -7.8000   -1.0550   -1.9190 h1        1 MOL      0.131333
     70 H30        -6.3100   -0.9090   -3.5390 hc        1 MOL      0.097138
     71 H31        -6.3380   -2.6520   -3.2400 hc        1 MOL      0.097138
     72 N7         -6.6190   -2.4700    0.5700 n         1 MOL     -0.321505
     73 C23        -6.6590   -3.5840    1.5680 c3        1 MOL      0.038423
     74 C24        -5.3220   -4.2840    1.7620 c         1 MOL      0.438509
     75 O13        -5.3490   -5.2600    2.5010 o         1 MOL     -0.574412
     76 H32        -6.0700   -1.6850    0.8770 hn        1 MOL      0.232207
     77 H33        -7.3530   -4.3430    1.2240 h1        1 MOL      0.063104
     78 H34        -7.0630   -3.2650    2.5340 h1        1 MOL      0.063104
     79 N8         -4.2690   -3.8670    1.1000 n         1 MOL     -0.146225
     80 C25        -2.9450   -4.5260    1.1070 c3        1 MOL     -0.243019
     81 C26        -1.8200   -3.4570    1.1650 c         1 MOL      0.786457
     82 O14        -2.0460   -2.2860    0.8150 o         1 MOL     -0.697098
     83 C27        -2.7550   -5.3500   -0.1000 c3        1 MOL      0.455153
     84 C28        -3.6320   -6.5410   -0.0720 c3        1 MOL     -0.646767
     85 O15        -3.0130   -4.7650   -1.3460 oh        1 MOL     -0.580034
     86 H35        -4.4190   -2.9740    0.6550 hn        1 MOL      0.230638
     87 H36        -2.8340   -5.1330    2.0040 h1        1 MOL      0.104446
     88 H37        -1.7490   -5.7670   -0.1350 h1        1 MOL      0.011190
     89 H38        -3.6940   -4.0980   -1.2180 ho        1 MOL      0.368936
     90 H39        -3.2870   -7.2260   -0.8330 hc        1 MOL      0.166543
     91 H40        -3.6490   -6.9460    0.9400 hc        1 MOL      0.166543
     92 H41        -4.6670   -6.2330   -0.2170 hc        1 MOL      0.166543
     93 N9         -0.5760   -3.8650    1.5520 n         1 MOL     -0.714960
     94 C29         0.5540   -2.9630    1.7060 c3        1 MOL     -0.033835
     95 C30         1.7110   -3.5950    0.8840 c         1 MOL      0.488097
     96 O16         2.1670   -4.7050    1.1960 o         1 MOL     -0.563955
     97 C31         0.8930   -2.7250    3.2150 c3        1 MOL      0.335110
     98 C32        -0.3160   -2.1840    4.0550 c3        1 MOL      0.020855
     99 C33         2.0820   -1.8240    3.2030 c3        1 MOL     -0.433620
    100 C34        -0.0240   -2.6440    5.5170 c3        1 MOL     -0.367724
    101 H42        -0.4990   -4.8020    1.9160 hn        1 MOL      0.325119
    102 H43         0.4040   -2.0260    1.1720 h1        1 MOL      0.071900
    103 H44         1.2410   -3.6850    3.5780 hc        1 MOL     -0.007167
    104 H45        -1.2530   -2.6490    3.7580 hc        1 MOL      0.055487
    105 H46        -0.3960   -1.0990    4.0010 hc        1 MOL      0.055487
    106 H47         2.9130   -2.4240    2.8130 hc        1 MOL      0.071908
    107 H48         1.8400   -0.9470    2.6020 hc        1 MOL      0.071908
    108 H49         2.3380   -1.6650    4.2550 hc        1 MOL      0.071908
    109 H50         0.8880   -2.1290    5.8300 hc        1 MOL      0.085889
    110 H51        -0.8450   -2.3100    6.1510 hc        1 MOL      0.085889
    111 H52         0.2300   -3.7030    5.5740 hc        1 MOL      0.085889
    112 N10         2.2640   -2.9080   -0.0590 n         1 MOL     -0.066794
    113 C35         3.4310   -3.3580   -0.8630 c3        1 MOL     -0.084270
    114 C36         4.8190   -3.1320   -0.1320 c         1 MOL      0.296877
    115 O17         4.8170   -2.4550    0.9430 o         1 MOL     -0.343526
    116 C37         3.4360   -2.5670   -2.1770 c3        1 MOL      0.030894
    117 C38         2.1400   -2.6580   -3.0980 c3        1 MOL     -0.294663
    118 O18         3.6880   -1.2010   -2.1000 oh        1 MOL     -0.441216
    119 H53         1.9100   -1.9890   -0.2970 hn        1 MOL      0.178261
    120 H54         3.2670   -4.4320   -0.9840 h1        1 MOL      0.108768
    121 H55         4.1780   -2.9840   -2.8450 h1        1 MOL      0.065954
    122 H56         3.2350   -0.7160   -2.7870 ho        1 MOL      0.399850
    123 H57         1.9290   -3.6950   -3.3600 hc        1 MOL      0.086607
    124 H58         1.3400   -2.2460   -2.4810 hc        1 MOL      0.086607
    125 H59         2.2690   -2.1510   -4.0570 hc        1 MOL      0.086607
    126 N11         5.9120   -3.6430   -0.7040 n         1 MOL     -0.212090
    127 C39         7.3020   -3.1650   -0.5060 c3        1 MOL     -0.209216
    128 C40         7.4650   -1.6040   -0.4050 c         1 MOL      0.481148
    129 O19         7.8680   -1.1570    0.6740 o         1 MOL     -0.470720
    130 C41         8.3370   -3.6420   -1.5400 c3        1 MOL      0.324701
    131 C42         8.7220   -5.1280   -1.3370 c3        1 MOL     -0.264014
    132 O20         8.1080   -3.4090   -2.9050 oh        1 MOL     -0.620240
    133 H60         5.7530   -4.2770   -1.4750 hn        1 MOL      0.277286
    134 H61         7.6250   -3.6310    0.4210 h1        1 MOL      0.144927
    135 H62         9.2110   -3.0310   -1.3130 h1        1 MOL      0.024530
    136 H63         8.9510   -3.3270   -3.3610 ho        1 MOL      0.407870
    137 H64         8.9750   -5.2540   -0.2860 hc        1 MOL      0.073592
    138 H65         7.8720   -5.7880   -1.5150 hc        1 MOL      0.073592
    139 H66         9.6290   -5.4640   -1.8520 hc        1 MOL      0.073592
    140 N12         6.9670   -0.8240   -1.3920 n         1 MOL     -0.325426
    141 C43         6.9490    0.6370   -1.4000 c3        1 MOL     -0.020783
    142 C44         6.2460    1.2410   -0.2660 c         1 MOL      0.349321
    143 O21         6.8970    1.9650    0.5320 o         1 MOL     -0.508011
    144 C45         6.4320    1.0960   -2.7340 c3        1 MOL      0.014189
    145 C46         6.4970    2.5030   -3.3240 c3        1 MOL     -0.153984
    146 C47         5.4400    3.3970   -2.6810 c3        1 MOL      0.014729
    147 C48         5.5590    4.9130   -2.8220 c3        1 MOL     -0.098570
    148 N13         4.3870    5.5960   -2.2870 n4        1 MOL     -0.263245
    149 H67         6.6730   -1.2780   -2.2480 hn        1 MOL      0.204445
    150 H68         7.9720    0.9990   -1.2680 h1        1 MOL      0.086959
    151 H69         5.3990    0.7930   -2.8860 hc        1 MOL      0.035210
    152 H70         7.0070    0.5240   -3.4690 hc        1 MOL      0.035210
    153 H71         6.2430    2.3280   -4.3640 hc        1 MOL      0.068966
    154 H72         7.5130    2.8710   -3.1700 hc        1 MOL      0.068966
    155 H73         5.3940    3.1170   -1.6220 hc        1 MOL      0.053208
    156 H74         4.4770    3.0770   -3.0660 hc        1 MOL      0.053208
    157 H75         5.7990    5.3030   -3.8210 hx        1 MOL      0.113307
    158 H76         6.3670    5.2420   -2.1580 hx        1 MOL      0.113307
    159 H77         3.5200    5.3550   -2.7400 hn        1 MOL      0.294513
    160 H78         4.2590    5.4770   -1.2940 hn        1 MOL      0.294513
    161 H79         4.5580    6.5710   -2.4630 hn        1 MOL      0.294513
    162 N14         5.0090    0.8390   -0.0950 n         1 MOL      0.045768
    163 C49         4.1290    1.2510    1.0700 c3        1 MOL     -0.199038
    164 C50         4.6610    0.9780    2.5220 c         1 MOL      0.407097
    165 O22         4.8160    1.9460    3.2280 o         1 MOL     -0.520325
    166 C51         2.6790    0.8290    0.8500 c3        1 MOL     -0.024353
    167 C52         2.0410    1.3680   -0.4240 c3        1 MOL     -0.066966
    168 C53         0.6050    0.7360   -0.6180 c         1 MOL      0.456833
    169 O23        -0.4360    1.4380   -0.7850 o         1 MOL     -0.555056
    170 O24         0.3810   -0.5200   -0.6730 o         1 MOL     -0.555056
    171 H80         4.6670    0.2020   -0.7930 hn        1 MOL     -0.005358
    172 H81         4.1090    2.3260    0.9360 h1        1 MOL      0.067675
    173 H82         1.9170    0.9750    1.6140 hc        1 MOL      0.114655
    174 H83         2.8070   -0.2400    0.6490 hc        1 MOL      0.114655
    175 H84         2.7110    1.2140   -1.2700 hc        1 MOL     -0.026438
    176 H85         2.1010    2.4600   -0.4170 hc        1 MOL     -0.026438
    177 N15         5.1640   -0.2340    2.6890 n         1 MOL      0.036278
    178 C54         5.8210   -0.6270    3.9830 c3        1 MOL     -0.382239
    179 H86         5.9080   -1.7120    4.0310 h1        1 MOL      0.130683
    180 H87         6.8130   -0.1800    4.0380 h1        1 MOL      0.130683
    181 H88         5.2160   -0.2750    4.8190 h1        1 MOL      0.130683
    182 H89         5.2860   -0.8610    1.9050 hn        1 MOL      0.147094
    183 Ca1        -2.0030   -0.6590   -1.4120 Ca        1 MOL      1.757044
    184 O25        -0.6840   -0.3740   -3.7690 oh        1 MOL     -0.886007
    185 H90        -0.2460   -0.7210   -4.5490 ho        1 MOL      0.406002
    186 H91        -1.2610    0.3170   -4.0960 ho        1 MOL      0.406002
    187 O26        -1.1330   -2.9610   -2.3950 oh        1 MOL     -0.886007
    188 H92        -0.4260   -2.8730   -3.0410 ho        1 MOL      0.406002
    189 H93        -1.2620   -3.9030   -2.2920 ho        1 MOL      0.406002
@<TRIPOS>BOND
     1    1    2 1   
     2    1    4 1   
     3    1    5 1   
     4    1    6 1   
     5    2    3 2   
     6    2    7 1   
     7    7    8 1   
     8    7   15 1   
     9    8    9 1   
    10    8   11 1   
    11    8   16 1   
    12    9   10 2   
    13    9   19 1   
    14   11   12 1   
    15   11   17 1   
    16   11   18 1   
    17   12   13 1   
    18   12   14 1   
    19   19   20 1   
    20   19   28 1   
    21   20   21 1   
    22   20   23 1   
    23   20   29 1   
    24   21   22 2   
    25   21   41 1   
    26   23   24 1   
    27   23   30 1   
    28   23   31 1   
    29   24   25 1   
    30   24   32 1   
    31   24   33 1   
    32   25   26 1   
    33   25   34 1   
    34   25   35 1   
    35   26   27 1   
    36   26   36 1   
    37   26   37 1   
    38   27   38 1   
    39   27   39 1   
    40   27   40 1   
    41   41   42 1   
    42   41   49 1   
    43   42   43 1   
    44   42   45 1   
    45   42   50 1   
    46   43   44 2   
    47   43   53 1   
    48   45   46 1   
    49   45   51 1   
    50   45   52 1   
    51   46   47 1   
    52   46   48 1   
    53   53   54 1   
    54   53   57 1   
    55   54   55 1   
    56   54   58 1   
    57   54   59 1   
    58   55   56 2   
    59   55   60 1   
    60   60   61 1   
    61   60   68 1   
    62   61   62 1   
    63   61   64 1   
    64   61   69 1   
    65   62   63 2   
    66   62   72 1   
    67   64   65 1   
    68   64   70 1   
    69   64   71 1   
    70   65   66 1   
    71   65   67 1   
    72   72   73 1   
    73   72   76 1   
    74   73   74 1   
    75   73   77 1   
    76   73   78 1   
    77   74   75 2   
    78   74   79 1   
    79   79   80 1   
    80   79   86 1   
    81   80   81 1   
    82   80   83 1   
    83   80   87 1   
    84   81   82 2   
    85   81   93 1   
    86   83   84 1   
    87   83   85 1   
    88   83   88 1   
    89   84   90 1   
    90   84   91 1   
    91   84   92 1   
    92   85   89 1   
    93   93   94 1   
    94   93  101 1   
    95   94   95 1   
    96   94   97 1   
    97   94  102 1   
    98   95   96 2   
    99   95  112 1   
   100   97   98 1   
   101   97   99 1   
   102   97  103 1   
   103   98  100 1   
   104   98  104 1   
   105   98  105 1   
   106   99  106 1   
   107   99  107 1   
   108   99  108 1   
   109  100  109 1   
   110  100  110 1   
   111  100  111 1   
   112  112  113 1   
   113  112  119 1   
   114  113  114 1   
   115  113  116 1   
   116  113  120 1   
   117  114  115 2   
   118  114  126 1   
   119  116  117 1   
   120  116  118 1   
   121  116  121 1   
   122  117  123 1   
   123  117  124 1   
   124  117  125 1   
   125  118  122 1   
   126  126  127 1   
   127  126  133 1   
   128  127  128 1   
   129  127  130 1   
   130  127  134 1   
   131  128  129 2   
   132  128  140 1   
   133  130  131 1   
   134  130  132 1   
   135  130  135 1   
   136  131  137 1   
   137  131  138 1   
   138  131  139 1   
   139  132  136 1   
   140  140  141 1   
   141  140  149 1   
   142  141  142 1   
   143  141  144 1   
   144  141  150 1   
   145  142  143 2   
   146  142  162 1   
   147  144  145 1   
   148  144  151 1   
   149  144  152 1   
   150  145  146 1   
   151  145  153 1   
   152  145  154 1   
   153  146  147 1   
   154  146  155 1   
   155  146  156 1   
   156  147  148 1   
   157  147  157 1   
   158  147  158 1   
   159  148  159 1   
   160  148  160 1   
   161  148  161 1   
   162  162  163 1   
   163  162  171 1   
   164  163  164 1   
   165  163  166 1   
   166  163  172 1   
   167  164  165 2   
   168  164  177 1   
   169  166  167 1   
   170  166  173 1   
   171  166  174 1   
   172  167  168 1   
   173  167  175 1   
   174  167  176 1   
   175  168  169 1   
   176  168  170 1   
   177  177  178 1   
   178  177  182 1   
   179  178  179 1   
   180  178  180 1   
   181  178  181 1   
   182  184  185 1   
   183  184  186 1   
   184  187  188 1   
   185  187  189 1   
@<TRIPOS>SUBSTRUCTURE
     1 MOL         1 TEMP              0 ****  ****    0 ROOT
