@<TRIPOS>MOLECULE
MOL
  175   173     1     0     0
SMALL
resp


@<TRIPOS>ATOM
      1 C1          0.6440    3.6800    5.5940 c3        1 MOL     -0.453696
      2 C2         -0.0220    3.7500    4.1340 c         1 MOL      0.680349
      3 O1          0.6530    3.9400    3.1170 o         1 MOL     -0.497088
      4 H1          0.0060    3.0950    6.2560 hc        1 MOL      0.115384
      5 H2          1.6240    3.2090    5.5240 hc        1 MOL      0.115384
      6 H3          0.7520    4.6890    5.9930 hc        1 MOL      0.115384
      7 N1         -1.3590    3.7070    4.0950 n         1 MOL     -0.619936
      8 C3         -2.0370    3.4620    2.7980 c3        1 MOL      0.121078
      9 C4         -2.1760    4.6680    1.9010 c         1 MOL      0.637696
     10 O2         -2.1400    5.8740    2.3100 o         1 MOL     -0.583619
     11 C5         -3.3640    2.7730    3.1220 c3        1 MOL     -0.406349
     12 C6         -4.1760    2.3150    1.8780 c         1 MOL      0.764854
     13 O3         -5.3470    1.9800    2.1430 o         1 MOL     -0.662903
     14 O4         -3.5670    2.0600    0.8140 o         1 MOL     -0.662903
     15 H4         -1.9270    3.4680    4.8900 hn        1 MOL      0.339008
     16 H5         -1.4190    2.7250    2.2920 h1        1 MOL      0.081374
     17 H6         -3.9450    3.4790    3.7090 hc        1 MOL      0.089638
     18 H7         -3.2070    1.8910    3.7410 hc        1 MOL      0.089638
     19 N2         -2.3800    4.4800    0.5830 n         1 MOL     -0.584823
     20 C7         -2.6810    5.5480   -0.3840 c3        1 MOL      0.337757
     21 C8         -3.7280    5.1730   -1.4820 c         1 MOL      0.298961
     22 O5         -4.1640    5.9910   -2.2700 o         1 MOL     -0.563130
     23 C9         -1.4180    6.0100   -1.0410 c3        1 MOL     -0.307847
     24 H8         -2.2530    3.5340    0.2450 hn        1 MOL      0.350032
     25 H9         -3.1220    6.3490    0.2150 h1        1 MOL      0.006145
     26 H10        -1.5600    6.7990   -1.7840 hc        1 MOL      0.077810
     27 H11        -0.7760    6.3960   -0.2600 hc        1 MOL      0.077810
     28 H12        -1.0280    5.1050   -1.5120 hc        1 MOL      0.077810
     29 N3         -4.0440    3.9090   -1.5400 n         1 MOL     -0.073168
     30 C10        -4.9460    3.4240   -2.6620 c3        1 MOL      0.058331
     31 C11        -6.1880    2.6380   -2.1310 c         1 MOL      0.269192
     32 O6         -7.1300    2.4020   -2.8240 o         1 MOL     -0.505106
     33 C12        -4.2540    2.4440   -3.5920 c3        1 MOL     -0.007594
     34 C13        -3.4360    1.3320   -2.9720 c         1 MOL      0.510250
     35 O7         -2.2540    1.1070   -3.3740 o         1 MOL     -0.641738
     36 O8         -3.7840    0.8170   -1.8930 o         1 MOL     -0.641738
     37 H13        -3.7370    3.3860   -0.7340 hn        1 MOL      0.095292
     38 H14        -5.3320    4.2450   -3.2700 h1        1 MOL      0.089617
     39 H15        -3.5400    2.9760   -4.2300 hc        1 MOL      0.006736
     40 H16        -4.9660    2.0720   -4.3300 hc        1 MOL      0.006736
     41 N4         -6.2250    2.2370   -0.8650 n         1 MOL     -0.086167
     42 C14        -7.3170    1.4010   -0.3450 c3        1 MOL     -0.238176
     43 C15        -7.4190    0.0130   -1.0100 c         1 MOL      0.522879
     44 O9         -8.4650   -0.5650   -1.1140 o         1 MOL     -0.590507
     45 H17        -5.4370    2.3940   -0.2530 hn        1 MOL      0.072803
     46 H18        -8.1780    2.0420   -0.5290 h1        1 MOL      0.114436
     47 H19        -7.2400    1.3130    0.7350 h1        1 MOL      0.114436
     48 N5         -6.2470   -0.5480   -1.4220 n         1 MOL     -0.296938
     49 C16        -6.1210   -1.8430   -2.0560 c3        1 MOL      0.136363
     50 C17        -6.2510   -3.0820   -1.0850 c         1 MOL      0.429943
     51 O10        -6.4060   -4.2020   -1.5970 o         1 MOL     -0.529422
     52 C18        -5.0360   -1.8870   -3.0840 c3        1 MOL     -0.279637
     53 C19        -3.6730   -2.1300   -2.5210 c         1 MOL      0.739553
     54 N6         -2.6870   -2.1590   -3.3570 n         1 MOL     -0.741311
     55 O11        -3.4330   -2.2290   -1.3370 o         1 MOL     -0.617671
     56 H20        -5.5040    0.1350   -1.4790 hn        1 MOL      0.277130
     57 H21        -7.0620   -2.0040   -2.5800 h1        1 MOL      0.059288
     58 H22        -4.9610   -0.9610   -3.6630 hc        1 MOL      0.073906
     59 H23        -5.2650   -2.7280   -3.7380 hc        1 MOL      0.073906
     60 H24        -2.7360   -1.8700   -4.3300 hn        1 MOL      0.362366
     61 H25        -1.7330   -2.2650   -3.0250 hn        1 MOL      0.362366
     62 N7         -6.3480   -2.8310    0.2190 n         1 MOL     -0.251520
     63 C20        -6.3310   -3.9650    1.1870 c3        1 MOL     -0.150622
     64 C21        -5.0030   -4.5680    1.5570 c         1 MOL      0.459073
     65 O12        -4.9300   -5.4410    2.4450 o         1 MOL     -0.574623
     66 H26        -6.6240   -1.9340    0.5700 hn        1 MOL      0.233298
     67 H27        -7.0190   -4.7420    0.8530 h1        1 MOL      0.093499
     68 H28        -6.6780   -3.6930    2.1770 h1        1 MOL      0.093499
     69 N8         -3.9160   -4.0950    0.9750 n         1 MOL      0.027432
     70 C22        -2.5940   -4.7040    1.2170 c3        1 MOL     -0.549088
     71 C23        -1.4990   -3.6250    1.4200 c         1 MOL      0.834708
     72 O13        -1.7290   -2.4830    1.1140 o         1 MOL     -0.696946
     73 C24        -2.1990   -5.5930    0.1060 c3        1 MOL      0.578983
     74 C25        -3.0770   -6.8370    0.0820 c3        1 MOL     -0.384684
     75 O14        -2.2300   -4.9640   -1.1570 oh        1 MOL     -0.609612
     76 H29        -3.9740   -3.2920    0.3700 hn        1 MOL      0.104975
     77 H30        -2.6260   -5.2650    2.1550 h1        1 MOL      0.150915
     78 H31        -1.1700   -5.9530    0.1790 h1        1 MOL     -0.033682
     79 H32        -2.1790   -4.0070   -1.0530 ho        1 MOL      0.347402
     80 H33        -4.1300   -6.6560   -0.1190 hc        1 MOL      0.091672
     81 H34        -2.6430   -7.6850   -0.4360 hc        1 MOL      0.091672
     82 H35        -3.1270   -7.2800    1.0720 hc        1 MOL      0.091672
     83 N9         -0.2810   -3.9130    1.9260 n         1 MOL     -0.580705
     84 C26         0.8120   -2.8790    1.9790 c3        1 MOL     -0.078687
     85 C27         1.6700   -3.0380    0.7100 c         1 MOL      0.642614
     86 O15         2.1060   -4.1490    0.3400 o         1 MOL     -0.597481
     87 C28         1.6010   -2.9660    3.2900 c3        1 MOL      0.426227
     88 C29         0.7160   -3.0560    4.5220 c3        1 MOL      0.113634
     89 C30         2.4700   -1.6130    3.3400 c3        1 MOL     -0.790041
     90 C31         1.4220   -3.3580    5.8070 c3        1 MOL     -0.176458
     91 H36         0.0040   -4.8360    2.2010 hn        1 MOL      0.294553
     92 H37         0.3330   -1.9030    2.1040 h1        1 MOL      0.076529
     93 H38         2.2770   -3.8240    3.2120 hc        1 MOL     -0.073784
     94 H39         0.0010   -3.8580    4.3090 hc        1 MOL     -0.034558
     95 H40         0.2640   -2.0610    4.4720 hc        1 MOL     -0.034558
     96 H41         3.0730   -1.6170    2.4240 hc        1 MOL      0.181651
     97 H42         1.8670   -0.7030    3.3670 hc        1 MOL      0.181651
     98 H43         2.9950   -1.4950    4.2830 hc        1 MOL      0.181651
     99 H44         2.2110   -2.6400    6.0340 hc        1 MOL      0.029399
    100 H45         0.7710   -3.3560    6.6800 hc        1 MOL      0.029399
    101 H46         1.8960   -4.3160    5.5570 hc        1 MOL      0.029399
    102 N10         1.9190   -1.9200    0.0050 n         1 MOL     -0.517859
    103 C32         2.7770   -1.9790   -1.1670 c3        1 MOL      0.263059
    104 C33         4.2190   -1.5220   -0.8640 c         1 MOL      0.341672
    105 O16         4.4210   -0.9180    0.1880 o         1 MOL     -0.246362
    106 C34         2.1540   -1.1070   -2.2500 c3        1 MOL     -0.495501
    107 C35         0.6330   -1.3310   -2.5160 c         1 MOL      0.854945
    108 O17        -0.2600   -0.7480   -1.8880 o         1 MOL     -0.716891
    109 O18         0.2500   -2.0510   -3.4620 o         1 MOL     -0.716891
    110 H47         1.6430   -1.0170    0.3710 hn        1 MOL      0.279998
    111 H48         2.7900   -2.9880   -1.5610 h1        1 MOL      0.073782
    112 H49         2.6600   -1.3770   -3.1790 hc        1 MOL      0.125569
    113 H50         2.2010   -0.0490   -2.0250 hc        1 MOL      0.125569
    114 N11         5.3270   -1.9700   -1.5260 n         1 MOL     -0.602324
    115 C36         6.6710   -1.5560   -1.1760 c3        1 MOL      0.342044
    116 C37         6.9450   -0.0300   -1.0990 c         1 MOL      0.376782
    117 O19         7.5030    0.4340   -0.1310 o         1 MOL     -0.461087
    118 C38         7.6590   -2.3380   -2.0720 c3        1 MOL     -0.361094
    119 C39         9.0500   -2.0220   -1.7750 ca        1 MOL      0.284268
    120 C40         9.5560   -0.8580   -2.4040 ca        1 MOL     -0.332866
    121 C41         9.7130   -2.6880   -0.7490 ca        1 MOL     -0.332866
    122 C42        10.7300   -0.3160   -1.8820 ca        1 MOL      0.001111
    123 C43        10.8530   -2.0960   -0.1840 ca        1 MOL      0.001111
    124 C44        11.3990   -0.9590   -0.8400 ca        1 MOL     -0.194515
    125 H51         5.2640   -2.4950   -2.3930 hn        1 MOL      0.315449
    126 H52         6.8540   -1.8690   -0.1430 h1        1 MOL      0.044461
    127 H53         7.5050   -1.9550   -3.0770 hc        1 MOL      0.103761
    128 H54         7.6780   -3.4240   -2.0440 hc        1 MOL      0.103761
    129 H55         8.9420   -0.2300   -3.0420 ha        1 MOL      0.160401
    130 H56         9.2270   -3.4790   -0.1940 ha        1 MOL      0.160401
    131 H57        11.1950    0.5720   -2.2640 ha        1 MOL      0.094167
    132 H58        11.3570   -2.4950    0.6850 ha        1 MOL      0.094167
    133 H59        12.3210   -0.5590   -0.4610 ha        1 MOL      0.108629
    134 N12         6.3330    0.8770   -2.0220 n         1 MOL     -0.114579
    135 C45         6.3670    2.2910   -1.8450 c3        1 MOL      0.084041
    136 C46         5.6030    2.8580   -0.6500 c         1 MOL      0.272546
    137 O20         5.8940    3.9220   -0.0600 o         1 MOL     -0.511995
    138 C47         5.7360    2.8480   -3.1940 c3        1 MOL     -0.118203
    139 C48         5.9370    1.7850   -4.2610 c3        1 MOL      0.122224
    140 C49         5.8730    0.5680   -3.4110 c3        1 MOL     -0.011018
    141 H60         7.3700    2.6870   -1.7560 h1        1 MOL      0.037045
    142 H61         4.6710    2.9660   -2.9720 hc        1 MOL      0.046588
    143 H62         6.2460    3.7760   -3.4740 hc        1 MOL      0.046588
    144 H63         5.2220    1.9060   -5.0710 hc        1 MOL     -0.007397
    145 H64         6.9310    1.8320   -4.7170 hc        1 MOL     -0.007397
    146 H65         4.8490    0.2260   -3.2790 h1        1 MOL     -0.004916
    147 H66         6.4580   -0.2000   -3.9230 h1        1 MOL     -0.004916
    148 N13         4.6820    2.0620   -0.1510 n         1 MOL     -0.096436
    149 C50         4.0900    2.4370    1.1510 c3        1 MOL     -0.134166
    150 C51         5.1010    2.0180    2.2980 c         1 MOL      0.459717
    151 O21         5.2730    2.6830    3.3390 o         1 MOL     -0.554453
    152 C52         2.7680    1.8310    1.3930 c3        1 MOL      0.082680
    153 C53         1.7190    2.3210    0.4220 c3        1 MOL     -0.071994
    154 C54         0.3900    1.6250    0.5940 c         1 MOL      0.583246
    155 O22        -0.6450    2.1040    0.0510 o         1 MOL     -0.692334
    156 O23         0.3580    0.4340    0.9930 o         1 MOL     -0.692334
    157 H67         4.5160    1.2300   -0.6910 hn        1 MOL      0.157748
    158 H68         3.9720    3.5120    1.2510 h1        1 MOL      0.128671
    159 H69         2.4780    2.0640    2.4170 hc        1 MOL      0.006709
    160 H70         2.8140    0.7530    1.3120 hc        1 MOL      0.006709
    161 H71         2.0740    2.1630   -0.5940 hc        1 MOL      0.029630
    162 H72         1.5490    3.3750    0.6610 hc        1 MOL      0.029630
    163 N14         5.5840    0.7320    2.1840 n         1 MOL     -0.065461
    164 C55         6.5630    0.1930    3.0990 c3        1 MOL     -0.184038
    165 H73         7.3080   -0.3730    2.5400 h1        1 MOL      0.067740
    166 H74         7.0510    1.0100    3.6320 h1        1 MOL      0.067740
    167 H75         6.0690   -0.4640    3.8140 h1        1 MOL      0.067740
    168 H76         5.1930    0.2520    1.3790 hn        1 MOL      0.047578
    169 Ca1        -2.0310   -0.0490   -0.1110 Ca        1 MOL      1.732342
    170 O24        -1.6100   -0.1420    2.9480 oh        1 MOL     -0.708525
    171 H77        -1.7010   -0.1630    3.8940 ho        1 MOL      0.351573
    172 H78        -0.8240    0.3700    2.7910 ho        1 MOL      0.351573
    173 O25        -4.4700   -0.6690    1.0260 oh        1 MOL     -0.708525
    174 H79        -4.7390    0.1640    1.4270 ho        1 MOL      0.351573
    175 H80        -4.5480   -1.3020    1.7440 ho        1 MOL      0.351573
@<TRIPOS>BOND
     1    1    2 1   
     2    1    4 1   
     3    1    5 1   
     4    1    6 1   
     5    2    3 2   
     6    2    7 1   
     7    7    8 1   
     8    7   15 1   
     9    8    9 1   
    10    8   11 1   
    11    8   16 1   
    12    9   10 2   
    13    9   19 1   
    14   11   12 1   
    15   11   17 1   
    16   11   18 1   
    17   12   13 1   
    18   12   14 1   
    19   19   20 1   
    20   19   24 1   
    21   20   21 1   
    22   20   23 1   
    23   20   25 1   
    24   21   22 2   
    25   21   29 1   
    26   23   26 1   
    27   23   27 1   
    28   23   28 1   
    29   29   30 1   
    30   29   37 1   
    31   30   31 1   
    32   30   33 1   
    33   30   38 1   
    34   31   32 2   
    35   31   41 1   
    36   33   34 1   
    37   33   39 1   
    38   33   40 1   
    39   34   35 1   
    40   34   36 1   
    41   41   42 1   
    42   41   45 1   
    43   42   43 1   
    44   42   46 1   
    45   42   47 1   
    46   43   44 2   
    47   43   48 1   
    48   48   49 1   
    49   48   56 1   
    50   49   50 1   
    51   49   52 1   
    52   49   57 1   
    53   50   51 2   
    54   50   62 1   
    55   52   53 1   
    56   52   58 1   
    57   52   59 1   
    58   53   54 1   
    59   53   55 2   
    60   54   60 1   
    61   54   61 1   
    62   62   63 1   
    63   62   66 1   
    64   63   64 1   
    65   63   67 1   
    66   63   68 1   
    67   64   65 2   
    68   64   69 1   
    69   69   70 1   
    70   69   76 1   
    71   70   71 1   
    72   70   73 1   
    73   70   77 1   
    74   71   72 2   
    75   71   83 1   
    76   73   74 1   
    77   73   75 1   
    78   73   78 1   
    79   74   80 1   
    80   74   81 1   
    81   74   82 1   
    82   75   79 1   
    83   83   84 1   
    84   83   91 1   
    85   84   85 1   
    86   84   87 1   
    87   84   92 1   
    88   85   86 2   
    89   85  102 1   
    90   87   88 1   
    91   87   89 1   
    92   87   93 1   
    93   88   90 1   
    94   88   94 1   
    95   88   95 1   
    96   89   96 1   
    97   89   97 1   
    98   89   98 1   
    99   90   99 1   
   100   90  100 1   
   101   90  101 1   
   102  102  103 1   
   103  102  110 1   
   104  103  104 1   
   105  103  106 1   
   106  103  111 1   
   107  104  105 2   
   108  104  114 1   
   109  106  107 1   
   110  106  112 1   
   111  106  113 1   
   112  107  108 1   
   113  107  109 1   
   114  114  115 1   
   115  114  125 1   
   116  115  116 1   
   117  115  118 1   
   118  115  126 1   
   119  116  117 2   
   120  116  134 1   
   121  118  119 1   
   122  118  127 1   
   123  118  128 1   
   124  119  120 ar  
   125  119  121 ar  
   126  120  122 ar  
   127  120  129 1   
   128  121  123 ar  
   129  121  130 1   
   130  122  124 ar  
   131  122  131 1   
   132  123  124 ar  
   133  123  132 1   
   134  124  133 1   
   135  134  135 1   
   136  134  140 1   
   137  135  136 1   
   138  135  138 1   
   139  135  141 1   
   140  136  137 2   
   141  136  148 1   
   142  138  139 1   
   143  138  142 1   
   144  138  143 1   
   145  139  140 1   
   146  139  144 1   
   147  139  145 1   
   148  140  146 1   
   149  140  147 1   
   150  148  149 1   
   151  148  157 1   
   152  149  150 1   
   153  149  152 1   
   154  149  158 1   
   155  150  151 2   
   156  150  163 1   
   157  152  153 1   
   158  152  159 1   
   159  152  160 1   
   160  153  154 1   
   161  153  161 1   
   162  153  162 1   
   163  154  155 1   
   164  154  156 1   
   165  163  164 1   
   166  163  168 1   
   167  164  165 1   
   168  164  166 1   
   169  164  167 1   
   170  170  171 1   
   171  170  172 1   
   172  173  174 1   
   173  173  175 1   
@<TRIPOS>SUBSTRUCTURE
     1 MOL         1 TEMP              0 ****  ****    0 ROOT
