@<TRIPOS>MOLECULE
MOL
  183   181     1     0     0
SMALL
resp


@<TRIPOS>ATOM
      1 C1         -0.2560    2.1180    6.2420 c3        1 MOL     -0.355056
      2 C2         -0.6170    2.0920    4.7260 c         1 MOL      0.808421
      3 O1          0.1410    2.5500    3.9340 o         1 MOL     -0.566368
      4 H1         -1.1470    2.3580    6.8230 hc        1 MOL      0.072665
      5 H2          0.1200    1.1400    6.5430 hc        1 MOL      0.072665
      6 H3          0.5090    2.8730    6.4220 hc        1 MOL      0.072665
      7 N1         -1.7720    1.4710    4.3870 n         1 MOL     -0.659622
      8 C3         -2.3660    1.4930    3.0580 c3        1 MOL      0.135676
      9 C4         -2.6670    2.9740    2.6320 c         1 MOL      0.504238
     10 O2         -3.1920    3.7490    3.4250 o         1 MOL     -0.587423
     11 C5         -3.7660    0.7670    3.1760 c3        1 MOL     -0.155109
     12 C6         -4.4210    0.4840    1.8110 c         1 MOL      0.814895
     13 O3         -5.5450   -0.1230    1.8180 o         1 MOL     -0.703642
     14 O4         -3.8420    0.9010    0.7800 o         1 MOL     -0.703642
     15 H4         -2.3730    1.0120    5.0670 hn        1 MOL      0.315934
     16 H5         -1.6220    1.0180    2.4120 h1        1 MOL     -0.015083
     17 H6         -4.4890    1.3020    3.7890 hc        1 MOL      0.030881
     18 H7         -3.6300   -0.1800    3.6970 hc        1 MOL      0.030881
     19 N2         -2.3260    3.3560    1.4060 n         1 MOL     -0.086835
     20 C7         -2.2580    4.7550    0.8930 c3        1 MOL     -0.234907
     21 C8         -3.5190    4.9660   -0.0030 c         1 MOL      0.721044
     22 O5         -4.1490    5.9750    0.0500 o         1 MOL     -0.606018
     23 C9         -0.8900    4.9590    0.1400 c3        1 MOL      0.224497
     24 C10         0.2870    4.7970    1.1430 c3        1 MOL     -0.054533
     25 C11        -0.7410    6.2730   -0.6560 c3        1 MOL     -0.231398
     26 C12         0.2040    5.8640    2.2670 c3        1 MOL     -0.324448
     27 H8         -1.8260    2.7000    0.8310 hn        1 MOL      0.131854
     28 H9         -2.3430    5.4860    1.6970 h1        1 MOL      0.087342
     29 H10        -0.6530    4.2060   -0.6100 hc        1 MOL      0.021921
     30 H11         1.1650    5.0390    0.5290 hc        1 MOL      0.066960
     31 H12         0.4090    3.7750    1.4920 hc        1 MOL      0.066960
     32 H13         0.2230    6.7450   -0.4550 hc        1 MOL      0.039791
     33 H14        -0.9340    6.1370   -1.7240 hc        1 MOL      0.039791
     34 H15        -1.5580    6.9090   -0.2950 hc        1 MOL      0.039791
     35 H16        -0.6870    5.7210    2.8840 hc        1 MOL      0.076684
     36 H17         1.0640    5.8910    2.9350 hc        1 MOL      0.076684
     37 H18         0.2830    6.8690    1.8460 hc        1 MOL      0.076684
     38 N3         -3.9850    3.9090   -0.7070 n         1 MOL     -0.496464
     39 C13        -5.0830    3.9610   -1.6670 c3        1 MOL      0.059846
     40 C14        -6.2950    3.1650   -1.2240 c         1 MOL      0.401961
     41 O6         -7.3930    3.5750   -1.7040 o         1 MOL     -0.598577
     42 C15        -4.5570    3.5510   -3.0870 c3        1 MOL     -0.143285
     43 C16        -3.5210    2.3790   -3.1180 c         1 MOL      0.722299
     44 O7         -2.7370    2.2930   -4.0730 o         1 MOL     -0.685762
     45 O8         -3.5010    1.6310   -2.1220 o         1 MOL     -0.685762
     46 H19        -3.6040    2.9910   -0.5300 hn        1 MOL      0.196706
     47 H20        -5.3970    4.9890   -1.8360 h1        1 MOL      0.089217
     48 H21        -4.1280    4.4180   -3.5840 hc        1 MOL      0.041821
     49 H22        -5.2880    3.4350   -3.8930 hc        1 MOL      0.041821
     50 N4         -6.2680    2.1670   -0.3840 n         1 MOL      0.056013
     51 C17        -7.5220    1.5400    0.0360 c3        1 MOL     -0.142054
     52 C18        -7.9250    0.2270   -0.6750 c         1 MOL      0.647539
     53 O9         -8.6140    0.2670   -1.7030 o         1 MOL     -0.557933
     54 H23        -5.4000    1.7780   -0.0270 hn        1 MOL      0.008388
     55 H24        -8.3440    2.2450   -0.0050 h1        1 MOL      0.034725
     56 H25        -7.4440    1.1630    1.0570 h1        1 MOL      0.034725
     57 N5         -7.3430   -0.8780   -0.2020 n         1 MOL     -0.642722
     58 C19        -7.5610   -2.2030   -0.7890 c3        1 MOL      0.064351
     59 C20        -7.2240   -3.2840    0.2550 c         1 MOL      0.427525
     60 O10        -7.4820   -4.4830    0.0210 o         1 MOL     -0.539183
     61 C21        -6.6780   -2.4110   -2.0130 c3        1 MOL     -0.260684
     62 C22        -5.2500   -1.8700   -1.8390 c         1 MOL      0.713373
     63 O11        -4.8270   -1.2620   -2.8690 o         1 MOL     -0.670009
     64 O12        -4.5480   -2.0820   -0.8000 o         1 MOL     -0.670009
     65 H26        -6.5650   -0.7700    0.4360 hn        1 MOL      0.408766
     66 H27        -8.6160   -2.3800   -1.0020 h1        1 MOL      0.081184
     67 H28        -7.0760   -1.7960   -2.8270 hc        1 MOL      0.083318
     68 H29        -6.6230   -3.4600   -2.2860 hc        1 MOL      0.083318
     69 N6         -6.7420   -2.9630    1.4870 n         1 MOL     -0.235584
     70 C23        -6.3680   -3.9620    2.4800 c3        1 MOL     -0.193962
     71 C24        -5.0930   -4.7320    1.9550 c         1 MOL      0.531931
     72 O13        -4.8750   -5.8680    2.3570 o         1 MOL     -0.588112
     73 H30        -6.5760   -1.9800    1.6730 hn        1 MOL      0.197797
     74 H31        -7.1370   -4.7060    2.6540 h1        1 MOL      0.091694
     75 H32        -6.1260   -3.4220    3.3940 h1        1 MOL      0.091694
     76 N7         -4.2530   -4.0430    1.1740 n         1 MOL     -0.034687
     77 C25        -2.8510   -4.4360    1.0770 c3        1 MOL     -0.360211
     78 C26        -1.8600   -3.2560    1.1220 c         1 MOL      0.683281
     79 O14        -2.2480   -2.1170    0.7530 o         1 MOL     -0.677613
     80 C27        -2.6290   -5.4240   -0.0770 c3        1 MOL      0.135890
     81 C28        -2.8110   -5.0390   -1.5360 c3        1 MOL     -0.253200
     82 C29        -1.6960   -4.1510   -1.9970 c         1 MOL      0.442547
     83 N8         -0.7140   -4.5780   -2.6740 n         1 MOL     -0.593813
     84 O15        -1.8090   -2.9490   -1.9750 o         1 MOL     -0.442504
     85 H33        -4.5670   -3.1610    0.7780 hn        1 MOL      0.130236
     86 H34        -2.6120   -4.9330    2.0130 h1        1 MOL      0.089160
     87 H35        -3.3290   -6.2520    0.0020 hc        1 MOL     -0.000339
     88 H36        -1.6550   -5.9130    0.0510 hc        1 MOL     -0.000339
     89 H37        -3.7750   -4.5560   -1.7050 hc        1 MOL      0.094210
     90 H38        -2.7060   -6.0340   -1.9600 hc        1 MOL      0.094210
     91 H39        -0.6840   -5.5400   -2.9910 hn        1 MOL      0.297999
     92 H40        -0.0460   -3.8940   -2.9820 hn        1 MOL      0.297999
     93 N9         -0.6010   -3.5310    1.4940 n         1 MOL     -0.370065
     94 C30         0.5190   -2.5320    1.6320 c3        1 MOL      0.084830
     95 C31         1.7390   -3.0880    0.8360 c         1 MOL      0.314184
     96 O16         2.4170   -4.0340    1.1590 o         1 MOL     -0.518628
     97 C32         0.8580   -2.3720    3.1160 c3        1 MOL     -0.068500
     98 C33         2.2340   -1.7080    3.2870 c3        1 MOL     -0.064236
     99 C34        -0.2420   -1.6060    3.7440 c3        1 MOL     -0.064236
    100 H41        -0.3810   -4.4470    1.8780 hn        1 MOL      0.285606
    101 H42         0.1270   -1.5950    1.2330 h1        1 MOL      0.062238
    102 H43         0.9700   -3.4130    3.4330 hc        1 MOL      0.023987
    103 H44         3.1210   -2.2180    2.9150 hc        1 MOL      0.021023
    104 H45         2.2760   -0.6540    2.9940 hc        1 MOL      0.021023
    105 H46         2.4420   -1.7150    4.3520 hc        1 MOL      0.021023
    106 H47        -1.1240   -2.2020    3.5120 hc        1 MOL      0.021023
    107 H48        -0.3110   -1.3510    4.8050 hc        1 MOL      0.021023
    108 H49        -0.2600   -0.6580    3.2010 hc        1 MOL      0.021023
    109 N10         1.9580   -2.4270   -0.2890 n         1 MOL     -0.126314
    110 C35         3.2090   -2.3980   -1.1350 c3        1 MOL      0.016126
    111 C36         4.4180   -1.8110   -0.4270 c         1 MOL      0.330906
    112 O17         4.2680   -1.0410    0.5090 o         1 MOL     -0.138664
    113 C37         2.9420   -1.6660   -2.5110 c3        1 MOL     -0.282013
    114 C38         1.9560   -2.4760   -3.3310 c         1 MOL      0.631568
    115 N11         0.7000   -2.1300   -3.3260 n         1 MOL     -0.580152
    116 O18         2.2720   -3.4510   -4.0010 o         1 MOL     -0.595315
    117 H50         1.2700   -1.7330   -0.5320 hn        1 MOL      0.068958
    118 H51         3.4650   -3.4200   -1.3820 h1        1 MOL      0.082844
    119 H52         3.8620   -1.4290   -3.0550 hc        1 MOL      0.088904
    120 H53         2.5310   -0.6700   -2.3300 hc        1 MOL      0.088904
    121 H54         0.5400   -1.2250   -2.9030 hn        1 MOL      0.317238
    122 H55         0.1740   -2.2690   -4.1760 hn        1 MOL      0.317238
    123 N12         5.6480   -2.1250   -0.8720 n         1 MOL     -0.544612
    124 C39         6.8210   -1.6690   -0.1950 c3        1 MOL      0.338464
    125 C40         7.0220   -0.1530   -0.3340 c         1 MOL      0.442806
    126 O19         7.4590    0.4360    0.6280 o         1 MOL     -0.495972
    127 C41         8.0700   -2.3990   -0.8010 c3        1 MOL     -0.135920
    128 C42         9.3620   -2.1150   -0.1150 ca        1 MOL      0.016446
    129 C43         9.6480   -2.2540    1.2600 ca        1 MOL     -0.093355
    130 C44        10.4200   -1.6260   -0.9490 ca        1 MOL     -0.093355
    131 C45        10.8880   -1.8170    1.8310 ca        1 MOL     -0.378414
    132 C46        11.6520   -1.3120   -0.4140 ca        1 MOL     -0.378414
    133 C47        11.8430   -1.2650    0.9550 ca        1 MOL      0.465767
    134 O20        12.9610   -0.6550    1.4170 oh        1 MOL     -0.515799
    135 H56         5.7460   -2.6810   -1.7120 hn        1 MOL      0.296073
    136 H57         6.7030   -2.0580    0.8180 h1        1 MOL      0.043825
    137 H58         8.1390   -2.0640   -1.8320 hc        1 MOL      0.029104
    138 H59         7.9650   -3.4880   -0.7230 hc        1 MOL      0.029104
    139 H60         8.9280   -2.6150    1.9820 ha        1 MOL      0.122142
    140 H61        10.3290   -1.6050   -2.0310 ha        1 MOL      0.122142
    141 H62        11.0080   -1.8740    2.9080 ha        1 MOL      0.174667
    142 H63        12.3820   -0.9060   -1.0940 ha        1 MOL      0.174667
    143 H64        13.5290   -0.3080    0.7330 ho        1 MOL      0.351934
    144 N13         6.4820    0.5150   -1.3720 n         1 MOL     -0.338885
    145 C48         6.2190    1.9490   -1.4890 c3        1 MOL      0.063683
    146 C49         5.2660    2.5990   -0.4200 c         1 MOL      0.380225
    147 O21         5.3370    3.7560   -0.0760 o         1 MOL     -0.517062
    148 C50         5.9640    2.4630   -2.8910 c3        1 MOL     -0.195829
    149 C51         4.6070    2.1330   -3.4600 c3        1 MOL     -0.094719
    150 C52         4.4110    2.7080   -4.8790 c         1 MOL      0.713575
    151 O22         5.1320    2.2990   -5.7900 o         1 MOL     -0.732385
    152 O23         3.4230    3.4200   -5.2040 o         1 MOL     -0.732385
    153 H65         6.1860   -0.0870   -2.1310 hn        1 MOL      0.260839
    154 H66         7.1790    2.3620   -1.1990 h1        1 MOL      0.041545
    155 H67         6.7480    2.0630   -3.5360 hc        1 MOL      0.053589
    156 H68         5.9190    3.5520   -2.8890 hc        1 MOL      0.053589
    157 H69         3.7940    2.5040   -2.8370 hc        1 MOL      0.010737
    158 H70         4.5390    1.0580   -3.6280 hc        1 MOL      0.010737
    159 N14         4.3670    1.7780    0.1010 n         1 MOL      0.005852
    160 C53         3.3580    2.1150    1.0800 c3        1 MOL      0.000662
    161 C54         3.9380    1.9220    2.4920 c         1 MOL      0.441404
    162 O24         3.8170    2.8310    3.3060 o         1 MOL     -0.539417
    163 C55         2.1290    1.2770    0.8470 c3        1 MOL      0.046422
    164 C56         1.4090    1.6390   -0.4730 c3        1 MOL      0.056212
    165 C57         0.0770    0.8930   -0.6310 c         1 MOL      0.574680
    166 O25        -0.9760    1.4850   -0.3870 o         1 MOL     -0.603832
    167 O26         0.0120   -0.2930   -1.0180 o         1 MOL     -0.603832
    168 H71         4.5710    0.7980   -0.0570 hn        1 MOL     -0.051978
    169 H72         3.1160    3.1760    0.9620 h1        1 MOL      0.047261
    170 H73         1.4260    1.3860    1.6680 hc        1 MOL      0.042133
    171 H74         2.4820    0.2370    0.7970 hc        1 MOL      0.042133
    172 H75         1.9830    1.3060   -1.3430 hc        1 MOL     -0.036621
    173 H76         1.2540    2.7120   -0.4510 hc        1 MOL     -0.036621
    174 N15         4.7410    0.8600    2.6280 n         1 MOL     -0.026893
    175 C58         5.5360    0.4300    3.8100 c3        1 MOL     -0.276729
    176 H77         4.9450    0.5720    4.7150 h1        1 MOL      0.101284
    177 H78         5.7980   -0.6220    3.7090 h1        1 MOL      0.101284
    178 H79         6.4450    1.0280    3.8730 h1        1 MOL      0.101284
    179 H80         4.7150    0.2180    1.8500 hn        1 MOL     -0.095571
    180 Ca1        -2.6440   -0.4760   -1.0850 Ca        1 MOL      1.691825
    181 O27        -1.9550   -0.0970   -3.6240 oh        1 MOL     -0.998646
    182 H81        -2.1880    0.8250   -3.6050 ho        1 MOL      0.445014
    183 H82        -1.9060   -0.3210   -4.5520 ho        1 MOL      0.445014
@<TRIPOS>BOND
     1    1    2 1   
     2    1    4 1   
     3    1    5 1   
     4    1    6 1   
     5    2    3 2   
     6    2    7 1   
     7    7    8 1   
     8    7   15 1   
     9    8    9 1   
    10    8   11 1   
    11    8   16 1   
    12    9   10 2   
    13    9   19 1   
    14   11   12 1   
    15   11   17 1   
    16   11   18 1   
    17   12   13 1   
    18   12   14 1   
    19   19   20 1   
    20   19   27 1   
    21   20   21 1   
    22   20   23 1   
    23   20   28 1   
    24   21   22 2   
    25   21   38 1   
    26   23   24 1   
    27   23   25 1   
    28   23   29 1   
    29   24   26 1   
    30   24   30 1   
    31   24   31 1   
    32   25   32 1   
    33   25   33 1   
    34   25   34 1   
    35   26   35 1   
    36   26   36 1   
    37   26   37 1   
    38   38   39 1   
    39   38   46 1   
    40   39   40 1   
    41   39   42 1   
    42   39   47 1   
    43   40   41 2   
    44   40   50 1   
    45   42   43 1   
    46   42   48 1   
    47   42   49 1   
    48   43   44 1   
    49   43   45 1   
    50   50   51 1   
    51   50   54 1   
    52   51   52 1   
    53   51   55 1   
    54   51   56 1   
    55   52   53 2   
    56   52   57 1   
    57   57   58 1   
    58   57   65 1   
    59   58   59 1   
    60   58   61 1   
    61   58   66 1   
    62   59   60 2   
    63   59   69 1   
    64   61   62 1   
    65   61   67 1   
    66   61   68 1   
    67   62   63 1   
    68   62   64 1   
    69   69   70 1   
    70   69   73 1   
    71   70   71 1   
    72   70   74 1   
    73   70   75 1   
    74   71   72 2   
    75   71   76 1   
    76   76   77 1   
    77   76   85 1   
    78   77   78 1   
    79   77   80 1   
    80   77   86 1   
    81   78   79 2   
    82   78   93 1   
    83   80   81 1   
    84   80   87 1   
    85   80   88 1   
    86   81   82 1   
    87   81   89 1   
    88   81   90 1   
    89   82   83 1   
    90   82   84 2   
    91   83   91 1   
    92   83   92 1   
    93   93   94 1   
    94   93  100 1   
    95   94   95 1   
    96   94   97 1   
    97   94  101 1   
    98   95   96 2   
    99   95  109 1   
   100   97   98 1   
   101   97   99 1   
   102   97  102 1   
   103   98  103 1   
   104   98  104 1   
   105   98  105 1   
   106   99  106 1   
   107   99  107 1   
   108   99  108 1   
   109  109  110 1   
   110  109  117 1   
   111  110  111 1   
   112  110  113 1   
   113  110  118 1   
   114  111  112 2   
   115  111  123 1   
   116  113  114 1   
   117  113  119 1   
   118  113  120 1   
   119  114  115 1   
   120  114  116 2   
   121  115  121 1   
   122  115  122 1   
   123  123  124 1   
   124  123  135 1   
   125  124  125 1   
   126  124  127 1   
   127  124  136 1   
   128  125  126 2   
   129  125  144 1   
   130  127  128 1   
   131  127  137 1   
   132  127  138 1   
   133  128  129 ar  
   134  128  130 ar  
   135  129  131 ar  
   136  129  139 1   
   137  130  132 ar  
   138  130  140 1   
   139  131  133 ar  
   140  131  141 1   
   141  132  133 ar  
   142  132  142 1   
   143  133  134 1   
   144  134  143 1   
   145  144  145 1   
   146  144  153 1   
   147  145  146 1   
   148  145  148 1   
   149  145  154 1   
   150  146  147 2   
   151  146  159 1   
   152  148  149 1   
   153  148  155 1   
   154  148  156 1   
   155  149  150 1   
   156  149  157 1   
   157  149  158 1   
   158  150  151 1   
   159  150  152 1   
   160  159  160 1   
   161  159  168 1   
   162  160  161 1   
   163  160  163 1   
   164  160  169 1   
   165  161  162 2   
   166  161  174 1   
   167  163  164 1   
   168  163  170 1   
   169  163  171 1   
   170  164  165 1   
   171  164  172 1   
   172  164  173 1   
   173  165  166 1   
   174  165  167 1   
   175  174  175 1   
   176  174  179 1   
   177  175  176 1   
   178  175  177 1   
   179  175  178 1   
   180  181  182 1   
   181  181  183 1   
@<TRIPOS>SUBSTRUCTURE
     1 MOL         1 TEMP              0 ****  ****    0 ROOT
