@<TRIPOS>MOLECULE
MOL
  175   173     1     0     0
SMALL
resp


@<TRIPOS>ATOM
      1 C1          0.6090    3.8070    5.3780 c3        1 MOL     -0.340116
      2 C2         -0.0630    3.9980    4.0420 c         1 MOL      0.723287
      3 O1          0.6480    4.2290    3.0690 o         1 MOL     -0.522734
      4 H1         -0.0160    3.1810    6.0130 hc        1 MOL      0.077710
      5 H2          1.5760    3.3250    5.2320 hc        1 MOL      0.077710
      6 H3          0.7530    4.7770    5.8550 hc        1 MOL      0.077710
      7 N1         -1.4160    3.8720    3.9970 n         1 MOL     -0.662354
      8 C3         -2.1060    3.4880    2.7460 c3        1 MOL      0.139186
      9 C4         -2.0180    4.6290    1.7400 c         1 MOL      0.526104
     10 O2         -2.1550    5.8160    2.0760 o         1 MOL     -0.565201
     11 C5         -3.5220    3.0480    3.0020 c3        1 MOL     -0.372339
     12 C6         -4.1590    2.5160    1.7650 c         1 MOL      0.793694
     13 O3         -5.3590    2.2760    1.8590 o         1 MOL     -0.681051
     14 O4         -3.4650    2.1560    0.7810 o         1 MOL     -0.681051
     15 H4         -1.9690    3.8750    4.8510 hn        1 MOL      0.341199
     16 H5         -1.5290    2.6530    2.3380 h1        1 MOL      0.081387
     17 H6         -4.0950    3.9140    3.3340 hc        1 MOL      0.089091
     18 H7         -3.6460    2.2920    3.7630 hc        1 MOL      0.089091
     19 N2         -1.7600    4.3400    0.4380 n         1 MOL     -0.450814
     20 C7         -1.6930    5.3110   -0.5730 c3        1 MOL      0.307867
     21 C8         -2.5090    4.8920   -1.7590 c         1 MOL      0.478394
     22 O5         -2.4250    5.6330   -2.7710 o         1 MOL     -0.589389
     23 C9         -0.2130    5.5020   -0.9210 c3        1 MOL     -0.289599
     24 H8         -1.5680    3.3770    0.1640 hn        1 MOL      0.374733
     25 H9         -2.1500    6.2400   -0.2290 h1        1 MOL      0.005095
     26 H10         0.2400    5.9030   -0.0110 hc        1 MOL      0.064225
     27 H11         0.2090    4.5480   -1.2180 hc        1 MOL      0.064225
     28 H12        -0.1760    6.1770   -1.7820 hc        1 MOL      0.064225
     29 N3         -3.3960    3.8990   -1.7500 n         1 MOL     -0.339671
     30 C10        -4.3810    3.5700   -2.7790 c3        1 MOL      0.112795
     31 C11        -5.6890    2.9080   -2.4180 c         1 MOL      0.419338
     32 O6         -6.5420    2.8820   -3.3130 o         1 MOL     -0.561485
     33 C12        -3.7470    2.6590   -3.8350 c3        1 MOL     -0.199478
     34 C13        -3.1700    1.3420   -3.2970 c         1 MOL      0.746466
     35 O7         -3.5690    0.9460   -2.1480 o         1 MOL     -0.701366
     36 O8         -2.3050    0.7240   -4.0300 o         1 MOL     -0.701366
     37 H13        -3.4810    3.3960   -0.8750 hn        1 MOL      0.089796
     38 H14        -4.6550    4.4860   -3.3060 h1        1 MOL      0.059057
     39 H15        -2.9120    3.2470   -4.2180 hc        1 MOL      0.050672
     40 H16        -4.4720    2.4750   -4.6310 hc        1 MOL      0.050672
     41 N4         -5.9720    2.3840   -1.2180 n         1 MOL     -0.303273
     42 C14        -7.2030    1.7310   -0.8490 c3        1 MOL     -0.136564
     43 C15        -7.1390    0.2150   -1.0400 c         1 MOL      0.497119
     44 O9         -8.1730   -0.3930   -0.7880 o         1 MOL     -0.619981
     45 H17        -5.1590    2.4170   -0.6290 hn        1 MOL      0.224356
     46 H18        -8.1340    2.0920   -1.2820 h1        1 MOL      0.108440
     47 H19        -7.3120    1.9060    0.2140 h1        1 MOL      0.108440
     48 N5         -6.1120   -0.3550   -1.6240 n         1 MOL     -0.186294
     49 C16        -6.2280   -1.7410   -2.1720 c3        1 MOL      0.063212
     50 C17        -6.3010   -2.9480   -1.2100 c         1 MOL      0.403040
     51 O10        -6.7300   -4.0280   -1.5900 o         1 MOL     -0.552909
     52 C18        -5.0600   -2.0000   -3.1300 c3        1 MOL     -0.228437
     53 C19        -3.7600   -2.3150   -2.4710 c         1 MOL      0.776717
     54 N6         -2.7840   -2.6990   -3.2480 n         1 MOL     -0.705228
     55 O11        -3.6570   -2.0770   -1.2880 o         1 MOL     -0.778279
     56 H20        -5.2210    0.0960   -1.7510 hn        1 MOL      0.204121
     57 H21        -7.1010   -1.7480   -2.8250 h1        1 MOL      0.068003
     58 H22        -5.0310   -1.1240   -3.7710 hc        1 MOL      0.046330
     59 H23        -5.3430   -2.8690   -3.7180 hc        1 MOL      0.046330
     60 H24        -2.9150   -2.5040   -4.2340 hn        1 MOL      0.339411
     61 H25        -1.8430   -2.5840   -2.9120 hn        1 MOL      0.339411
     62 N7         -5.9670   -2.6390    0.0250 n         1 MOL     -0.000866
     63 C20        -6.2740   -3.5510    1.1400 c3        1 MOL     -0.374057
     64 C21        -5.0260   -4.3770    1.6300 c         1 MOL      0.652187
     65 O12        -5.0500   -5.0740    2.5990 o         1 MOL     -0.597043
     66 H26        -5.6950   -1.6980    0.2840 hn        1 MOL      0.151612
     67 H27        -7.0580   -4.2400    0.8460 h1        1 MOL      0.125777
     68 H28        -6.5880   -2.9410    1.9870 h1        1 MOL      0.125777
     69 N8         -3.8710   -4.1830    0.9830 n         1 MOL     -0.355846
     70 C22        -2.5630   -4.5590    1.5030 c3        1 MOL     -0.138761
     71 C23        -1.5460   -3.4510    1.6440 c         1 MOL      0.718827
     72 O13        -1.6380   -2.4350    0.9160 o         1 MOL     -0.702435
     73 C24        -2.0540   -5.5910    0.5610 c3        1 MOL      0.476612
     74 C25        -2.8170   -6.9120    0.6630 c3        1 MOL     -0.439021
     75 O14        -2.1960   -5.0820   -0.7990 oh        1 MOL     -0.645743
     76 H29        -3.9270   -3.7400    0.0840 hn        1 MOL      0.292568
     77 H30        -2.7200   -4.9040    2.5250 h1        1 MOL      0.080226
     78 H31        -0.9910   -5.7310    0.7670 h1        1 MOL     -0.049779
     79 H32        -1.6380   -4.3250   -0.9630 ho        1 MOL      0.438718
     80 H33        -3.7230   -6.9710    0.0440 hc        1 MOL      0.110804
     81 H34        -2.1570   -7.6860    0.2950 hc        1 MOL      0.110804
     82 H35        -3.0720   -7.1450    1.7000 hc        1 MOL      0.110804
     83 N9         -0.4790   -3.7600    2.4280 n         1 MOL     -0.661438
     84 C26         0.7400   -2.9520    2.3520 c3        1 MOL      0.315580
     85 C27         1.4800   -3.1910    0.9730 c         1 MOL      0.512002
     86 O15         1.7480   -4.3100    0.5430 o         1 MOL     -0.580471
     87 C28         1.6150   -2.9200    3.6350 c3        1 MOL     -0.068568
     88 C29         1.1100   -1.7750    4.4760 c3        1 MOL      0.184010
     89 C30         3.1110   -2.7530    3.2940 c3        1 MOL     -0.248358
     90 C31         1.6580   -1.8220    5.9170 c3        1 MOL     -0.144792
     91 H36        -0.4560   -4.6850    2.8190 hn        1 MOL      0.310389
     92 H37         0.4230   -1.9110    2.2580 h1        1 MOL     -0.091452
     93 H38         1.3710   -3.9280    3.9770 hc        1 MOL      0.041183
     94 H39         0.0320   -1.7620    4.6490 hc        1 MOL     -0.019673
     95 H40         1.4760   -0.8480    4.0320 hc        1 MOL     -0.019673
     96 H41         3.5300   -3.5680    2.7010 hc        1 MOL      0.057041
     97 H42         3.3230   -1.9010    2.6350 hc        1 MOL      0.057041
     98 H43         3.7490   -2.6600    4.1710 hc        1 MOL      0.057041
     99 H44         1.4730   -2.8350    6.2680 hc        1 MOL      0.020634
    100 H45         2.7250   -1.6090    5.8850 hc        1 MOL      0.020634
    101 H46         1.1620   -1.0600    6.5210 hc        1 MOL      0.020634
    102 N10         1.9420   -2.1760    0.2470 n         1 MOL     -0.451028
    103 C32         2.6540   -2.2270   -1.0280 c3        1 MOL      0.251535
    104 C33         4.0420   -1.6130   -0.8030 c         1 MOL      0.433759
    105 O16         4.1460   -0.9790    0.2030 o         1 MOL     -0.270553
    106 C34         1.8470   -1.6030   -2.1660 c3        1 MOL     -0.536105
    107 C35         0.2880   -1.8820   -2.0860 c         1 MOL      0.953368
    108 O17        -0.5750   -1.0660   -1.7200 o         1 MOL     -0.732690
    109 O18        -0.1360   -3.0290   -2.4470 o         1 MOL     -0.732690
    110 H47         1.6230   -1.2860    0.5930 hn        1 MOL      0.334883
    111 H48         2.8460   -3.2680   -1.3090 h1        1 MOL      0.058148
    112 H49         2.2350   -1.9980   -3.1120 hc        1 MOL      0.104410
    113 H50         2.0490   -0.5390   -2.0470 hc        1 MOL      0.104410
    114 N11         5.0040   -1.9410   -1.6160 n         1 MOL     -0.739032
    115 C36         6.3840   -1.5340   -1.3810 c3        1 MOL      0.455086
    116 C37         6.5230   -0.0230   -1.1500 c         1 MOL      0.280003
    117 O19         7.1850    0.2980   -0.1700 o         1 MOL     -0.494563
    118 C38         7.3060   -1.9500   -2.6000 c3        1 MOL     -0.181774
    119 C39         8.7850   -1.7990   -2.3140 ca        1 MOL      0.137151
    120 C40         9.4060   -2.1510   -1.0900 ca        1 MOL     -0.224654
    121 C41         9.5450   -1.1410   -3.3000 ca        1 MOL     -0.224654
    122 C42        10.7380   -1.8920   -0.8490 ca        1 MOL     -0.064504
    123 C43        10.9180   -0.9230   -3.0420 ca        1 MOL     -0.064504
    124 C44        11.5480   -1.3090   -1.8280 ca        1 MOL     -0.138128
    125 H51         4.6620   -2.3260   -2.4860 hn        1 MOL      0.361016
    126 H52         6.7760   -2.1010   -0.5290 h1        1 MOL      0.052317
    127 H53         7.0030   -1.4710   -3.5380 hc        1 MOL      0.051127
    128 H54         7.1990   -3.0170   -2.7480 hc        1 MOL      0.051127
    129 H55         8.8390   -2.6100   -0.2990 ha        1 MOL      0.127170
    130 H56         9.0860   -0.8660   -4.2390 ha        1 MOL      0.127170
    131 H57        11.1880   -2.1450    0.0980 ha        1 MOL      0.098894
    132 H58        11.5190   -0.4410   -3.8010 ha        1 MOL      0.098894
    133 H59        12.6070   -1.1050   -1.7400 ha        1 MOL      0.104575
    134 N12         5.8410    0.9240   -1.8140 n         1 MOL     -0.004978
    135 C45         6.0650    2.3610   -1.4430 c3        1 MOL      0.017100
    136 C46         5.5970    2.7330   -0.1200 c         1 MOL      0.436581
    137 O20         6.0860    3.6170    0.5240 o         1 MOL     -0.524825
    138 C47         5.5850    3.2350   -2.6320 c3        1 MOL     -0.203776
    139 C48         4.6280    2.2540   -3.3890 c3        1 MOL     -0.001015
    140 C49         5.2940    0.8350   -3.2000 c3        1 MOL     -0.115812
    141 H60         7.1530    2.4570   -1.3610 h1        1 MOL      0.052419
    142 H61         5.1720    4.1000   -2.0990 hc        1 MOL      0.086543
    143 H62         6.4280    3.4710   -3.2720 hc        1 MOL      0.086543
    144 H63         3.6480    2.3370   -2.9280 hc        1 MOL      0.041204
    145 H64         4.5920    2.4820   -4.4580 hc        1 MOL      0.041204
    146 H65         4.6200   -0.0240   -3.1780 h1        1 MOL      0.062777
    147 H66         6.1020    0.6900   -3.9190 h1        1 MOL      0.062777
    148 N13         4.6240    1.9680    0.4340 n         1 MOL     -0.086763
    149 C50         3.9730    2.2230    1.6460 c3        1 MOL     -0.225122
    150 C51         4.7790    1.5540    2.8030 c         1 MOL      0.504246
    151 O21         4.9320    2.0390    3.8770 o         1 MOL     -0.543899
    152 C52         2.5600    1.6160    1.5910 c3        1 MOL      0.054814
    153 C53         1.7120    2.0470    0.4240 c3        1 MOL     -0.249419
    154 C54         0.3150    1.5410    0.4100 c         1 MOL      0.695016
    155 O22        -0.0400    0.8110    1.3570 o         1 MOL     -0.782573
    156 O23        -0.5530    1.7280   -0.4160 o         1 MOL     -0.782573
    157 H67         4.3660    1.1070   -0.0150 hn        1 MOL      0.080320
    158 H68         3.9650    3.2770    1.9020 h1        1 MOL      0.136514
    159 H69         1.9720    1.9640    2.4480 hc        1 MOL      0.046358
    160 H70         2.5780    0.5220    1.6440 hc        1 MOL      0.046358
    161 H71         2.1620    1.7480   -0.5250 hc        1 MOL      0.088440
    162 H72         1.6750    3.1260    0.4950 hc        1 MOL      0.088440
    163 N14         5.3620    0.3780    2.4800 n         1 MOL     -0.086703
    164 C55         6.2770   -0.3760    3.2990 c3        1 MOL     -0.160574
    165 H73         5.7210   -1.1050    3.8880 h1        1 MOL      0.062822
    166 H74         6.9940   -0.8940    2.6620 h1        1 MOL      0.062822
    167 H75         6.8090    0.3010    3.9680 h1        1 MOL      0.062822
    168 H76         5.1630   -0.1570    1.6490 hn        1 MOL      0.038636
    169 Ca1        -2.3700   -0.1160   -0.1570 Ca        1 MOL      1.824889
    170 O24        -2.0890    0.0250    2.6060 oh        1 MOL     -0.816647
    171 H77        -2.2690    0.1950    3.5290 ho        1 MOL      0.394726
    172 H78        -1.1760    0.3020    2.4860 ho        1 MOL      0.394726
    173 O25        -4.9830   -0.2450    1.2170 oh        1 MOL     -0.816647
    174 H79        -5.2040    0.6720    1.3670 ho        1 MOL      0.394726
    175 H80        -5.0350   -0.6480    2.0850 ho        1 MOL      0.394726
@<TRIPOS>BOND
     1    1    2 1   
     2    1    4 1   
     3    1    5 1   
     4    1    6 1   
     5    2    3 2   
     6    2    7 1   
     7    7    8 1   
     8    7   15 1   
     9    8    9 1   
    10    8   11 1   
    11    8   16 1   
    12    9   10 2   
    13    9   19 1   
    14   11   12 1   
    15   11   17 1   
    16   11   18 1   
    17   12   13 1   
    18   12   14 1   
    19   19   20 1   
    20   19   24 1   
    21   20   21 1   
    22   20   23 1   
    23   20   25 1   
    24   21   22 2   
    25   21   29 1   
    26   23   26 1   
    27   23   27 1   
    28   23   28 1   
    29   29   30 1   
    30   29   37 1   
    31   30   31 1   
    32   30   33 1   
    33   30   38 1   
    34   31   32 2   
    35   31   41 1   
    36   33   34 1   
    37   33   39 1   
    38   33   40 1   
    39   34   35 1   
    40   34   36 1   
    41   41   42 1   
    42   41   45 1   
    43   42   43 1   
    44   42   46 1   
    45   42   47 1   
    46   43   44 2   
    47   43   48 1   
    48   48   49 1   
    49   48   56 1   
    50   49   50 1   
    51   49   52 1   
    52   49   57 1   
    53   50   51 2   
    54   50   62 1   
    55   52   53 1   
    56   52   58 1   
    57   52   59 1   
    58   53   54 1   
    59   53   55 2   
    60   54   60 1   
    61   54   61 1   
    62   62   63 1   
    63   62   66 1   
    64   63   64 1   
    65   63   67 1   
    66   63   68 1   
    67   64   65 2   
    68   64   69 1   
    69   69   70 1   
    70   69   76 1   
    71   70   71 1   
    72   70   73 1   
    73   70   77 1   
    74   71   72 2   
    75   71   83 1   
    76   73   74 1   
    77   73   75 1   
    78   73   78 1   
    79   74   80 1   
    80   74   81 1   
    81   74   82 1   
    82   75   79 1   
    83   83   84 1   
    84   83   91 1   
    85   84   85 1   
    86   84   87 1   
    87   84   92 1   
    88   85   86 2   
    89   85  102 1   
    90   87   88 1   
    91   87   89 1   
    92   87   93 1   
    93   88   90 1   
    94   88   94 1   
    95   88   95 1   
    96   89   96 1   
    97   89   97 1   
    98   89   98 1   
    99   90   99 1   
   100   90  100 1   
   101   90  101 1   
   102  102  103 1   
   103  102  110 1   
   104  103  104 1   
   105  103  106 1   
   106  103  111 1   
   107  104  105 2   
   108  104  114 1   
   109  106  107 1   
   110  106  112 1   
   111  106  113 1   
   112  107  108 1   
   113  107  109 1   
   114  114  115 1   
   115  114  125 1   
   116  115  116 1   
   117  115  118 1   
   118  115  126 1   
   119  116  117 2   
   120  116  134 1   
   121  118  119 1   
   122  118  127 1   
   123  118  128 1   
   124  119  120 ar  
   125  119  121 ar  
   126  120  122 ar  
   127  120  129 1   
   128  121  123 ar  
   129  121  130 1   
   130  122  124 ar  
   131  122  131 1   
   132  123  124 ar  
   133  123  132 1   
   134  124  133 1   
   135  134  135 1   
   136  134  140 1   
   137  135  136 1   
   138  135  138 1   
   139  135  141 1   
   140  136  137 2   
   141  136  148 1   
   142  138  139 1   
   143  138  142 1   
   144  138  143 1   
   145  139  140 1   
   146  139  144 1   
   147  139  145 1   
   148  140  146 1   
   149  140  147 1   
   150  148  149 1   
   151  148  157 1   
   152  149  150 1   
   153  149  152 1   
   154  149  158 1   
   155  150  151 2   
   156  150  163 1   
   157  152  153 1   
   158  152  159 1   
   159  152  160 1   
   160  153  154 1   
   161  153  161 1   
   162  153  162 1   
   163  154  155 1   
   164  154  156 1   
   165  163  164 1   
   166  163  168 1   
   167  164  165 1   
   168  164  166 1   
   169  164  167 1   
   170  170  171 1   
   171  170  172 1   
   172  173  174 1   
   173  173  175 1   
@<TRIPOS>SUBSTRUCTURE
     1 MOL         1 TEMP              0 ****  ****    0 ROOT
