@<TRIPOS>MOLECULE
MOL
  189   185     1     0     0
SMALL
resp


@<TRIPOS>ATOM
      1 C1          0.0780    2.2590    5.6310 c3        1 MOL     -0.316965
      2 C2         -0.5690    2.0970    4.2260 c         1 MOL      0.721722
      3 O1          0.0670    2.4290    3.2450 o         1 MOL     -0.607662
      4 H1          1.0890    1.8510    5.6140 hc        1 MOL      0.082282
      5 H2          0.1180    3.3160    5.8930 hc        1 MOL      0.082282
      6 H3         -0.5170    1.7230    6.3690 hc        1 MOL      0.082282
      7 N1         -1.8250    1.6710    4.0370 n         1 MOL     -0.601857
      8 C3         -2.3620    1.3680    2.7030 c3        1 MOL      0.120217
      9 C4         -2.9350    2.7160    2.1130 c         1 MOL      0.534816
     10 O2         -3.9640    3.2140    2.5670 o         1 MOL     -0.548367
     11 C5         -3.4810    0.2930    2.7960 c3        1 MOL     -0.104669
     12 C6         -3.9170   -0.2150    1.4620 c         1 MOL      0.695841
     13 O3         -3.3590    0.2280    0.3990 o         1 MOL     -0.706533
     14 O4         -4.8230   -1.0710    1.5060 o         1 MOL     -0.706533
     15 H4         -2.3920    1.4900    4.8490 hn        1 MOL      0.320335
     16 H5         -1.6650    0.9630    1.9650 h1        1 MOL      0.033402
     17 H6         -4.3040    0.7780    3.3220 hc        1 MOL      0.030726
     18 H7         -3.1200   -0.5360    3.4120 hc        1 MOL      0.030726
     19 N2         -2.1900    3.4210    1.2770 n         1 MOL     -0.308694
     20 C7         -2.5500    4.7910    0.8740 c3        1 MOL     -0.175796
     21 C8         -3.7590    4.7580   -0.0090 c         1 MOL      0.541407
     22 O5         -4.6590    5.6250    0.0600 o         1 MOL     -0.587588
     23 C9         -1.3590    5.4370    0.2010 c3        1 MOL      0.050266
     24 C10        -1.6940    6.8940   -0.2170 c3        1 MOL     -0.180370
     25 C11        -1.8470    7.7880    1.0060 c3        1 MOL      0.203323
     26 C12        -2.1490    9.1720    0.3180 c3        1 MOL      0.027893
     27 N3         -2.2880   10.3510    1.3190 n4        1 MOL     -0.535998
     28 H8         -1.2550    3.1190    1.0500 hn        1 MOL      0.290599
     29 H9         -2.8120    5.4360    1.7210 h1        1 MOL      0.106944
     30 H10        -1.1230    4.8610   -0.6930 hc        1 MOL      0.035323
     31 H11        -0.4270    5.4420    0.7600 hc        1 MOL      0.035323
     32 H12        -2.6410    6.8950   -0.7580 hc        1 MOL      0.045668
     33 H13        -0.8460    7.1550   -0.8480 hc        1 MOL      0.045668
     34 H14        -0.8540    7.7830    1.4590 hc        1 MOL     -0.016957
     35 H15        -2.5960    7.4570    1.7210 hc        1 MOL     -0.016957
     36 H16        -3.0860    9.0330   -0.2130 hx        1 MOL      0.081795
     37 H17        -1.3300    9.3450   -0.3780 hx        1 MOL      0.081795
     38 H18        -1.4480   10.4730    1.8550 hn        1 MOL      0.369704
     39 H19        -2.4310   11.1850    0.7710 hn        1 MOL      0.369704
     40 H20        -3.1840   10.2350    1.7810 hn        1 MOL      0.369704
     41 N4         -3.9480    3.6920   -0.8150 n         1 MOL     -0.233851
     42 C13        -4.9650    3.6300   -1.8300 c3        1 MOL      0.069739
     43 C14        -6.0270    2.5650   -1.4780 c         1 MOL      0.337790
     44 O6         -7.0820    2.5380   -2.1250 o         1 MOL     -0.526024
     45 C15        -4.4870    3.3000   -3.2070 c3        1 MOL     -0.359806
     46 C16        -3.3320    2.2590   -3.3720 c         1 MOL      0.779475
     47 O7         -2.7910    2.0920   -4.4920 o         1 MOL     -0.708458
     48 O8         -2.8970    1.6770   -2.3510 o         1 MOL     -0.708458
     49 H21        -3.2020    3.0150   -0.9370 hn        1 MOL      0.218775
     50 H22        -5.4780    4.5910   -1.8920 h1        1 MOL      0.090463
     51 H23        -4.1880    4.2150   -3.7040 hc        1 MOL      0.092935
     52 H24        -5.2430    2.7930   -3.8200 hc        1 MOL      0.092935
     53 N5         -5.8730    1.7990   -0.3800 n         1 MOL     -0.001096
     54 C17        -6.9640    1.0680    0.2270 c3        1 MOL     -0.316652
     55 C18        -7.4260   -0.1490   -0.5890 c         1 MOL      0.545297
     56 O9         -8.5670   -0.5260   -0.5230 o         1 MOL     -0.568470
     57 H25        -4.9900    1.8880    0.1060 hn        1 MOL      0.062351
     58 H26        -7.7190    1.8500    0.3470 h1        1 MOL      0.134510
     59 H27        -6.6060    0.8350    1.2200 h1        1 MOL      0.134510
     60 N6         -6.5000   -0.7340   -1.3310 n         1 MOL     -0.159543
     61 C19        -6.6310   -2.0700   -1.9520 c3        1 MOL     -0.278545
     62 C20        -6.4980   -3.3070   -1.0320 c         1 MOL      0.488009
     63 O10        -6.5590   -4.4730   -1.3850 o         1 MOL     -0.526385
     64 C21        -5.5720   -2.2210   -3.0820 c3        1 MOL      0.038908
     65 C22        -4.1660   -1.9650   -2.6600 c         1 MOL      0.610165
     66 O11        -3.3550   -1.5760   -3.5050 o         1 MOL     -0.680229
     67 O12        -3.7540   -2.3020   -1.4980 o         1 MOL     -0.680229
     68 H28        -5.5670   -0.3570   -1.2410 hn        1 MOL      0.133290
     69 H29        -7.6000   -1.9970   -2.4480 h1        1 MOL      0.157617
     70 H30        -5.8360   -1.5350   -3.8750 hc        1 MOL      0.030384
     71 H31        -5.6970   -3.2090   -3.5300 hc        1 MOL      0.030384
     72 N7         -6.3740   -3.0400    0.2450 n         1 MOL     -0.241921
     73 C23        -6.2690   -4.1580    1.2180 c3        1 MOL     -0.266477
     74 C24        -4.9010   -4.8160    1.2470 c         1 MOL      0.617075
     75 O13        -4.8660   -5.9890    1.6420 o         1 MOL     -0.591363
     76 H32        -6.1160   -2.1050    0.5300 hn        1 MOL      0.303147
     77 H33        -7.0450   -4.8740    0.9870 h1        1 MOL      0.121609
     78 H34        -6.4300   -3.6720    2.1890 h1        1 MOL      0.121609
     79 N8         -3.8620   -4.2430    0.6480 n         1 MOL     -0.275646
     80 C25        -2.4770   -4.7610    0.5050 c3        1 MOL     -0.374005
     81 C26        -1.3290   -3.7560    0.7260 c         1 MOL      0.841190
     82 O14        -1.3240   -2.6530    0.2470 o         1 MOL     -0.683660
     83 C27        -2.2920   -5.4090   -0.8510 c3        1 MOL      0.598494
     84 C28        -2.6370   -6.9120   -0.8580 c3        1 MOL     -0.524906
     85 O15        -3.0710   -4.7470   -1.8970 oh        1 MOL     -0.685400
     86 H35        -4.0360   -3.4590    0.0370 hn        1 MOL      0.240477
     87 H36        -2.4200   -5.4980    1.3110 h1        1 MOL      0.133686
     88 H37        -1.2380   -5.3340   -1.1270 h1        1 MOL     -0.092526
     89 H38        -3.0710   -3.8090   -1.6850 ho        1 MOL      0.518552
     90 H39        -2.3560   -7.3600   -1.8070 hc        1 MOL      0.130611
     91 H40        -2.1540   -7.3790    0.0090 hc        1 MOL      0.130611
     92 H41        -3.6840   -7.1090   -0.6370 hc        1 MOL      0.130611
     93 N9         -0.3680   -4.0740    1.6220 n         1 MOL     -0.703615
     94 C29         0.7540   -3.1830    1.9480 c3        1 MOL     -0.006821
     95 C30         2.0300   -3.5960    1.1370 c         1 MOL      0.548608
     96 O16         2.5560   -4.6680    1.3980 o         1 MOL     -0.570359
     97 C31         1.0610   -3.1670    3.4880 c3        1 MOL      0.257102
     98 C32        -0.2470   -2.7650    4.2470 c3        1 MOL      0.007493
     99 C33         2.0140   -2.0320    3.7170 c3        1 MOL     -0.608325
    100 C34        -0.2370   -2.6700    5.7260 c3        1 MOL     -0.103999
    101 H42        -0.5050   -4.9640    2.0760 hn        1 MOL      0.321507
    102 H43         0.3840   -2.1800    1.7250 h1        1 MOL      0.100760
    103 H44         1.5570   -4.0800    3.8150 hc        1 MOL     -0.003112
    104 H45        -1.0670   -3.4050    3.9040 hc        1 MOL      0.026688
    105 H46        -0.5800   -1.7700    3.9470 hc        1 MOL      0.026688
    106 H47         1.6230   -1.0830    3.3500 hc        1 MOL      0.142194
    107 H48         2.1850   -1.9610    4.7930 hc        1 MOL      0.142194
    108 H49         3.0030   -2.3030    3.3340 hc        1 MOL      0.142194
    109 H50        -0.1100   -3.6690    6.1630 hc        1 MOL      0.015231
    110 H51         0.5650   -2.0520    6.1230 hc        1 MOL      0.015231
    111 H52        -1.1590   -2.2140    6.0750 hc        1 MOL      0.015231
    112 N10         2.4540   -2.7950    0.2230 n         1 MOL     -0.092728
    113 C35         3.7500   -3.0870   -0.5090 c3        1 MOL     -0.367156
    114 C36         4.9820   -2.4420    0.1450 c         1 MOL      0.582107
    115 O17         4.9060   -1.6190    1.0410 o         1 MOL     -0.428659
    116 C37         3.6350   -2.3860   -1.8980 c3        1 MOL      0.465584
    117 C38         2.5850   -3.0160   -2.7750 c3        1 MOL     -0.398350
    118 O18         3.3460   -1.0440   -1.8060 oh        1 MOL     -0.627300
    119 H53         1.9510   -1.9560   -0.0370 hn        1 MOL      0.193581
    120 H54         3.9020   -4.1580   -0.6800 h1        1 MOL      0.136847
    121 H55         4.5460   -2.3960   -2.4970 h1        1 MOL     -0.016474
    122 H56         2.4080   -0.9730   -1.6020 ho        1 MOL      0.413013
    123 H57         1.6420   -3.0900   -2.2230 hc        1 MOL      0.097109
    124 H58         2.3970   -2.3400   -3.6110 hc        1 MOL      0.097109
    125 H59         2.9910   -3.9460   -3.1590 hc        1 MOL      0.097109
    126 N11         6.1710   -2.8560   -0.3140 n         1 MOL     -0.374245
    127 C39         7.4800   -2.3700    0.2460 c3        1 MOL     -0.112114
    128 C40         7.6290   -0.8780    0.0650 c         1 MOL      0.418075
    129 O19         8.0860   -0.1360    0.9210 o         1 MOL     -0.510916
    130 C41         8.6620   -3.0740   -0.3470 c3        1 MOL      0.208642
    131 C42         8.7850   -4.5270   -0.0190 c3        1 MOL     -0.378941
    132 O20         8.6170   -2.9680   -1.7780 oh        1 MOL     -0.639252
    133 H60         6.1770   -3.5590   -1.0470 hn        1 MOL      0.286966
    134 H61         7.4540   -2.4160    1.3410 h1        1 MOL      0.155661
    135 H62         9.5410   -2.5890    0.0540 h1        1 MOL      0.075267
    136 H63         9.3940   -3.4230   -2.1200 ho        1 MOL      0.420610
    137 H64         8.6520   -4.7420    1.0410 hc        1 MOL      0.114873
    138 H65         8.0590   -5.1630   -0.5390 hc        1 MOL      0.114873
    139 H66         9.8080   -4.8510   -0.2230 hc        1 MOL      0.114873
    140 N12         7.0690   -0.3860   -1.0190 n         1 MOL     -0.251036
    141 C43         7.1380    1.0170   -1.3310 c3        1 MOL     -0.073732
    142 C44         6.2050    1.8450   -0.4050 c         1 MOL      0.314047
    143 O21         6.4000    3.0530   -0.1420 o         1 MOL     -0.525269
    144 C45         6.7190    1.2630   -2.8130 c3        1 MOL      0.144043
    145 C46         6.8040    2.7100   -3.3690 c3        1 MOL      0.041987
    146 C47         8.0780    3.4720   -2.9420 c3        1 MOL     -0.208915
    147 C48         9.3150    2.8300   -3.5330 c3        1 MOL      0.145935
    148 N13        10.4870    3.6440   -3.2070 n4        1 MOL     -0.354867
    149 H67         6.8470   -1.0020   -1.7790 hn        1 MOL      0.266773
    150 H68         8.1710    1.2730   -1.1140 h1        1 MOL      0.115450
    151 H69         5.6940    0.9260   -2.9810 hc        1 MOL     -0.028660
    152 H70         7.3700    0.6000   -3.3770 hc        1 MOL     -0.028660
    153 H71         5.8820    3.2460   -3.1390 hc        1 MOL      0.030924
    154 H72         6.8430    2.5940   -4.4490 hc        1 MOL      0.030924
    155 H73         8.0630    3.6060   -1.8530 hc        1 MOL      0.065358
    156 H74         7.9230    4.4820   -3.3120 hc        1 MOL      0.065358
    157 H75         9.1990    2.8190   -4.6170 hx        1 MOL      0.041088
    158 H76         9.4610    1.8140   -3.1620 hx        1 MOL      0.041088
    159 H77        11.1300    3.7150   -3.9790 hn        1 MOL      0.327055
    160 H78        10.1450    4.5910   -3.2010 hn        1 MOL      0.327055
    161 H79        10.9020    3.3710   -2.3250 hn        1 MOL      0.327055
    162 N14         5.2010    1.2320    0.1440 n         1 MOL      0.070334
    163 C49         4.2770    1.8180    1.1210 c3        1 MOL     -0.197012
    164 C50         4.8900    1.7110    2.5800 c         1 MOL      0.471261
    165 O22         4.5420    2.5870    3.3500 o         1 MOL     -0.519250
    166 C51         2.9140    1.1120    1.0340 c3        1 MOL      0.147237
    167 C52         2.0570    1.7590   -0.0570 c3        1 MOL     -0.074453
    168 C53         0.8080    0.8990   -0.3580 c         1 MOL      0.729391
    169 O23         0.9640   -0.2570   -0.8080 o         1 MOL     -0.740152
    170 O24        -0.3230    1.4090   -0.2940 o         1 MOL     -0.740152
    171 H80         5.2060    0.2280    0.0900 hn        1 MOL     -0.071824
    172 H81         4.1360    2.8720    0.8760 h1        1 MOL      0.124112
    173 H82         2.4360    1.1730    2.0170 hc        1 MOL     -0.005576
    174 H83         3.0520    0.0560    0.8180 hc        1 MOL     -0.005576
    175 H84         2.6080    1.8990   -0.9840 hc        1 MOL      0.017097
    176 H85         1.7370    2.7670    0.2160 hc        1 MOL      0.017097
    177 N15         5.8040    0.7480    2.9020 n         1 MOL     -0.167492
    178 C54         6.5580    0.8620    4.1300 c3        1 MOL     -0.264952
    179 H86         7.5260    0.3750    4.0090 h1        1 MOL      0.104496
    180 H87         6.7090    1.9150    4.3690 h1        1 MOL      0.104496
    181 H88         6.0090    0.3800    4.9390 h1        1 MOL      0.104496
    182 H89         5.8180   -0.0790    2.3290 hn        1 MOL      0.218520
    183 Ca1        -1.7900   -0.6070   -1.4770 Ca        1 MOL      1.764600
    184 O25        -0.8940   -2.9590   -2.7190 oh        1 MOL     -0.879709
    185 H90        -0.1540   -3.4950   -2.9950 ho        1 MOL      0.405576
    186 H91        -1.4560   -2.9040   -3.4860 ho        1 MOL      0.405576
    187 O26        -0.6830    0.1850   -3.7880 oh        1 MOL     -0.879709
    188 H92        -1.3240    0.7460   -4.2270 ho        1 MOL      0.405576
    189 H93        -0.0280   -0.0070   -4.4620 ho        1 MOL      0.405576
@<TRIPOS>BOND
     1    1    2 1   
     2    1    4 1   
     3    1    5 1   
     4    1    6 1   
     5    2    3 2   
     6    2    7 1   
     7    7    8 1   
     8    7   15 1   
     9    8    9 1   
    10    8   11 1   
    11    8   16 1   
    12    9   10 2   
    13    9   19 1   
    14   11   12 1   
    15   11   17 1   
    16   11   18 1   
    17   12   13 1   
    18   12   14 1   
    19   19   20 1   
    20   19   28 1   
    21   20   21 1   
    22   20   23 1   
    23   20   29 1   
    24   21   22 2   
    25   21   41 1   
    26   23   24 1   
    27   23   30 1   
    28   23   31 1   
    29   24   25 1   
    30   24   32 1   
    31   24   33 1   
    32   25   26 1   
    33   25   34 1   
    34   25   35 1   
    35   26   27 1   
    36   26   36 1   
    37   26   37 1   
    38   27   38 1   
    39   27   39 1   
    40   27   40 1   
    41   41   42 1   
    42   41   49 1   
    43   42   43 1   
    44   42   45 1   
    45   42   50 1   
    46   43   44 2   
    47   43   53 1   
    48   45   46 1   
    49   45   51 1   
    50   45   52 1   
    51   46   47 1   
    52   46   48 1   
    53   53   54 1   
    54   53   57 1   
    55   54   55 1   
    56   54   58 1   
    57   54   59 1   
    58   55   56 2   
    59   55   60 1   
    60   60   61 1   
    61   60   68 1   
    62   61   62 1   
    63   61   64 1   
    64   61   69 1   
    65   62   63 2   
    66   62   72 1   
    67   64   65 1   
    68   64   70 1   
    69   64   71 1   
    70   65   66 1   
    71   65   67 1   
    72   72   73 1   
    73   72   76 1   
    74   73   74 1   
    75   73   77 1   
    76   73   78 1   
    77   74   75 2   
    78   74   79 1   
    79   79   80 1   
    80   79   86 1   
    81   80   81 1   
    82   80   83 1   
    83   80   87 1   
    84   81   82 2   
    85   81   93 1   
    86   83   84 1   
    87   83   85 1   
    88   83   88 1   
    89   84   90 1   
    90   84   91 1   
    91   84   92 1   
    92   85   89 1   
    93   93   94 1   
    94   93  101 1   
    95   94   95 1   
    96   94   97 1   
    97   94  102 1   
    98   95   96 2   
    99   95  112 1   
   100   97   98 1   
   101   97   99 1   
   102   97  103 1   
   103   98  100 1   
   104   98  104 1   
   105   98  105 1   
   106   99  106 1   
   107   99  107 1   
   108   99  108 1   
   109  100  109 1   
   110  100  110 1   
   111  100  111 1   
   112  112  113 1   
   113  112  119 1   
   114  113  114 1   
   115  113  116 1   
   116  113  120 1   
   117  114  115 2   
   118  114  126 1   
   119  116  117 1   
   120  116  118 1   
   121  116  121 1   
   122  117  123 1   
   123  117  124 1   
   124  117  125 1   
   125  118  122 1   
   126  126  127 1   
   127  126  133 1   
   128  127  128 1   
   129  127  130 1   
   130  127  134 1   
   131  128  129 2   
   132  128  140 1   
   133  130  131 1   
   134  130  132 1   
   135  130  135 1   
   136  131  137 1   
   137  131  138 1   
   138  131  139 1   
   139  132  136 1   
   140  140  141 1   
   141  140  149 1   
   142  141  142 1   
   143  141  144 1   
   144  141  150 1   
   145  142  143 2   
   146  142  162 1   
   147  144  145 1   
   148  144  151 1   
   149  144  152 1   
   150  145  146 1   
   151  145  153 1   
   152  145  154 1   
   153  146  147 1   
   154  146  155 1   
   155  146  156 1   
   156  147  148 1   
   157  147  157 1   
   158  147  158 1   
   159  148  159 1   
   160  148  160 1   
   161  148  161 1   
   162  162  163 1   
   163  162  171 1   
   164  163  164 1   
   165  163  166 1   
   166  163  172 1   
   167  164  165 2   
   168  164  177 1   
   169  166  167 1   
   170  166  173 1   
   171  166  174 1   
   172  167  168 1   
   173  167  175 1   
   174  167  176 1   
   175  168  169 1   
   176  168  170 1   
   177  177  178 1   
   178  177  182 1   
   179  178  179 1   
   180  178  180 1   
   181  178  181 1   
   182  184  185 1   
   183  184  186 1   
   184  187  188 1   
   185  187  189 1   
@<TRIPOS>SUBSTRUCTURE
     1 MOL         1 TEMP              0 ****  ****    0 ROOT
