@<TRIPOS>MOLECULE
MOL
  175   173     1     0     0
SMALL
resp


@<TRIPOS>ATOM
      1 C1          0.4630    4.6520    5.3030 c3        1 MOL     -0.403161
      2 C2         -0.0600    4.4640    3.8480 c         1 MOL      0.717034
      3 O1          0.6850    4.6550    2.8870 o         1 MOL     -0.538941
      4 H1         -0.3200    5.1010    5.9150 hc        1 MOL      0.100468
      5 H2          0.7380    3.6830    5.7200 hc        1 MOL      0.100468
      6 H3          1.3360    5.3040    5.2950 hc        1 MOL      0.100468
      7 N1         -1.3690    4.1160    3.7210 n         1 MOL     -0.646097
      8 C3         -2.2200    3.8420    2.5070 c3        1 MOL      0.221126
      9 C4         -2.6430    5.0690    1.7120 c         1 MOL      0.602398
     10 O2         -2.8680    6.1800    2.3080 o         1 MOL     -0.585316
     11 C5         -3.4620    2.9460    2.8740 c3        1 MOL     -0.436013
     12 C6         -4.0800    2.1870    1.6470 c         1 MOL      0.729232
     13 O3         -5.2130    1.6600    1.7100 o         1 MOL     -0.648039
     14 O4         -3.4470    1.9720    0.5680 o         1 MOL     -0.648039
     15 H4         -1.8520    4.0290    4.6000 hn        1 MOL      0.314015
     16 H5         -1.6370    3.1860    1.8640 h1        1 MOL      0.067175
     17 H6         -4.1810    3.5860    3.3810 hc        1 MOL      0.113129
     18 H7         -3.1680    2.1750    3.5910 hc        1 MOL      0.113129
     19 N2         -2.7190    4.8600    0.4170 n         1 MOL     -0.674891
     20 C7         -3.3970    5.7800   -0.4990 c3        1 MOL      0.587721
     21 C8         -4.4780    5.2270   -1.3840 c         1 MOL      0.104837
     22 O5         -5.2150    5.9250   -2.1570 o         1 MOL     -0.535431
     23 C9         -2.3710    6.5070   -1.3990 c3        1 MOL     -0.364021
     24 H8         -2.4360    3.9340    0.1400 hn        1 MOL      0.324854
     25 H9         -3.8520    6.6200    0.0350 h1        1 MOL     -0.022698
     26 H10        -2.9040    7.3930   -1.7610 hc        1 MOL      0.090870
     27 H11        -1.5390    6.8210   -0.7690 hc        1 MOL      0.090870
     28 H12        -2.0400    5.8900   -2.2310 hc        1 MOL      0.090870
     29 N3         -4.4930    3.9380   -1.5480 n         1 MOL     -0.108177
     30 C10        -5.1840    3.1060   -2.5930 c3        1 MOL      0.190421
     31 C11        -6.2490    2.1200   -2.0900 c         1 MOL      0.330653
     32 O6         -7.1770    1.8960   -2.8410 o         1 MOL     -0.528128
     33 C12        -4.1040    2.6940   -3.7170 c3        1 MOL     -0.283173
     34 C13        -3.0450    1.6330   -3.2210 c         1 MOL      0.731878
     35 O7         -2.0210    1.4240   -3.8030 o         1 MOL     -0.685777
     36 O8         -3.2680    0.9940   -2.1550 o         1 MOL     -0.685777
     37 H13        -3.7720    3.4930   -0.9890 hn        1 MOL      0.179535
     38 H14        -5.7890    3.8620   -3.1020 h1        1 MOL      0.053184
     39 H15        -3.5310    3.5620   -4.0130 hc        1 MOL      0.063050
     40 H16        -4.6260    2.2620   -4.5750 hc        1 MOL      0.063050
     41 N4         -6.3290    1.6310   -0.8120 n         1 MOL     -0.067788
     42 C14        -7.3790    0.8030   -0.2800 c3        1 MOL     -0.229130
     43 C15        -7.4860   -0.5920   -0.8340 c         1 MOL      0.480143
     44 O9         -8.5670   -1.2220   -0.7970 o         1 MOL     -0.614527
     45 H17        -5.6370    1.9500   -0.1530 hn        1 MOL      0.056231
     46 H18        -8.3300    1.2770   -0.5420 h1        1 MOL      0.112264
     47 H19        -7.3190    0.7070    0.8120 h1        1 MOL      0.112264
     48 N5         -6.3850   -1.1470   -1.2350 n         1 MOL     -0.093780
     49 C16        -6.1980   -2.4370   -1.8760 c3        1 MOL     -0.104811
     50 C17        -6.0150   -3.6740   -0.9650 c         1 MOL      0.407719
     51 O10        -5.9570   -4.8470   -1.4090 o         1 MOL     -0.525786
     52 C18        -5.1780   -2.3960   -2.9480 c3        1 MOL     -0.011458
     53 C19        -3.7420   -2.1740   -2.5280 c         1 MOL      0.396345
     54 N6         -2.8110   -2.0560   -3.3800 n         1 MOL     -0.510327
     55 O11        -3.3870   -2.1730   -1.3310 o         1 MOL     -0.418396
     56 H20        -5.5020   -0.6620   -1.1980 hn        1 MOL      0.114705
     57 H21        -7.1030   -2.7140   -2.4280 h1        1 MOL      0.112138
     58 H22        -5.4320   -1.6130   -3.6750 hc        1 MOL      0.027335
     59 H23        -5.2050   -3.3350   -3.5010 hc        1 MOL      0.027335
     60 H24        -3.0210   -1.9880   -4.3600 hn        1 MOL      0.304351
     61 H25        -1.8480   -2.0410   -3.0580 hn        1 MOL      0.304351
     62 N7         -6.0870   -3.4990    0.3350 n         1 MOL     -0.171739
     63 C20        -5.9860   -4.5610    1.3500 c3        1 MOL     -0.288919
     64 C21        -4.5470   -4.9780    1.7720 c         1 MOL      0.634242
     65 O12        -4.3220   -5.7180    2.7320 o         1 MOL     -0.601309
     66 H26        -6.3060   -2.5850    0.7190 hn        1 MOL      0.225372
     67 H27        -6.4470   -5.4770    0.9660 h1        1 MOL      0.123713
     68 H28        -6.5250   -4.1870    2.2160 h1        1 MOL      0.123713
     69 N8         -3.5010   -4.5110    1.0640 n         1 MOL     -0.477985
     70 C22        -2.0830   -4.8310    1.1590 c3        1 MOL      0.053701
     71 C23        -1.3180   -3.6090    1.5990 c         1 MOL      0.697808
     72 O13        -1.6780   -2.4750    1.2990 o         1 MOL     -0.646293
     73 C24        -1.3710   -5.3240   -0.1120 c3        1 MOL      0.555376
     74 C25        -1.8440   -6.6910   -0.4620 c3        1 MOL     -0.426990
     75 O14        -1.5820   -4.5060   -1.2960 oh        1 MOL     -0.590187
     76 H29        -3.7250   -3.9770    0.2400 hn        1 MOL      0.284529
     77 H30        -1.9820   -5.6860    1.8400 h1        1 MOL      0.042654
     78 H31        -0.3140   -5.4300    0.1450 h1        1 MOL     -0.060698
     79 H32        -1.1640   -3.6830   -1.0400 ho        1 MOL      0.315414
     80 H33        -1.5850   -6.8510   -1.5070 hc        1 MOL      0.094239
     81 H34        -1.3350   -7.4390    0.1430 hc        1 MOL      0.094239
     82 H35        -2.9330   -6.7350   -0.4210 hc        1 MOL      0.094239
     83 N9         -0.2480   -3.8150    2.3520 n         1 MOL     -0.659694
     84 C26         0.9450   -2.9630    2.2480 c3        1 MOL      0.102207
     85 C27         1.6790   -3.2440    0.9010 c         1 MOL      0.322990
     86 O15         2.0770   -4.3430    0.5010 o         1 MOL     -0.526062
     87 C28         1.9490   -3.0570    3.3960 c3        1 MOL      0.284731
     88 C29         1.4250   -3.7010    4.6360 c3        1 MOL      0.247151
     89 C30         2.5620   -1.6800    3.7750 c3        1 MOL     -0.580127
     90 C31         2.4290   -3.9350    5.7580 c3        1 MOL     -0.309166
     91 H36        -0.0410   -4.7350    2.7210 hn        1 MOL      0.250659
     92 H37         0.5570   -1.9410    2.1980 h1        1 MOL      0.097824
     93 H38         2.7660   -3.7150    3.0830 hc        1 MOL     -0.043281
     94 H39         1.2030   -4.7190    4.3380 hc        1 MOL     -0.046832
     95 H40         0.5080   -3.2190    4.9760 hc        1 MOL     -0.046832
     96 H41         2.9040   -1.1620    2.8820 hc        1 MOL      0.123778
     97 H42         1.7820   -1.0640    4.2250 hc        1 MOL      0.123778
     98 H43         3.4470   -1.8720    4.3740 hc        1 MOL      0.123778
     99 H44         3.3520   -4.3930    5.3990 hc        1 MOL      0.063130
    100 H45         2.6250   -2.9620    6.2160 hc        1 MOL      0.063130
    101 H46         1.9740   -4.6380    6.4560 hc        1 MOL      0.063130
    102 N10         1.9700   -2.0660    0.2930 n         1 MOL     -0.159901
    103 C32         2.7640   -1.9330   -0.9500 c3        1 MOL      0.181579
    104 C33         4.1230   -1.2630   -0.6930 c         1 MOL      0.223056
    105 O16         4.2440   -0.5410    0.3100 o         1 MOL     -0.310352
    106 C34         1.9470   -1.2430   -2.1010 c3        1 MOL     -0.077678
    107 C35         0.5520   -1.7030   -2.2980 c         1 MOL      0.572809
    108 O17         0.2880   -2.2520   -3.3890 o         1 MOL     -0.630927
    109 O18        -0.3600   -1.5220   -1.4340 o         1 MOL     -0.630927
    110 H47         1.5890   -1.2120    0.6860 hn        1 MOL      0.169997
    111 H48         3.0330   -2.9510   -1.2460 h1        1 MOL      0.015477
    112 H49         2.5060   -1.4050   -3.0290 hc        1 MOL      0.019863
    113 H50         1.9230   -0.1770   -1.8700 hc        1 MOL      0.019863
    114 N11         5.1360   -1.5470   -1.5350 n         1 MOL     -0.307787
    115 C36         6.5150   -1.1430   -1.3350 c3        1 MOL      0.055278
    116 C37         6.7880    0.3590   -1.0300 c         1 MOL      0.312832
    117 O19         7.6000    0.6450   -0.1540 o         1 MOL     -0.456763
    118 C38         7.4650   -1.7760   -2.4160 c3        1 MOL     -0.235270
    119 C39         8.9640   -1.5650   -2.2450 ca        1 MOL      0.155265
    120 C40         9.6110   -0.4840   -2.8960 ca        1 MOL     -0.217051
    121 C41         9.6380   -2.5820   -1.5100 ca        1 MOL     -0.217051
    122 C42        10.9800   -0.4420   -2.8150 ca        1 MOL      0.022620
    123 C43        11.0380   -2.4360   -1.4010 ca        1 MOL      0.022620
    124 C44        11.6940   -1.4470   -2.0900 ca        1 MOL     -0.267828
    125 H51         4.9040   -2.1550   -2.3050 hn        1 MOL      0.267756
    126 H52         6.7680   -1.7280   -0.4530 h1        1 MOL      0.100800
    127 H53         7.1970   -1.3930   -3.3990 hc        1 MOL      0.076770
    128 H54         7.1770   -2.8270   -2.4230 hc        1 MOL      0.076770
    129 H55         9.0160    0.1940   -3.4840 ha        1 MOL      0.136320
    130 H56         9.1630   -3.4810   -1.1620 ha        1 MOL      0.136320
    131 H57        11.4970    0.1690   -3.5450 ha        1 MOL      0.074267
    132 H58        11.5760   -3.2180   -0.8790 ha        1 MOL      0.074267
    133 H59        12.7720   -1.3410   -1.9950 ha        1 MOL      0.132026
    134 N12         6.2220    1.3470   -1.8260 n         1 MOL     -0.051231
    135 C45         6.3550    2.7290   -1.4610 c3        1 MOL      0.005478
    136 C46         5.5340    3.1690   -0.2100 c         1 MOL      0.381208
    137 O20         5.7840    4.2300    0.3840 o         1 MOL     -0.503462
    138 C47         5.7240    3.4870   -2.6630 c3        1 MOL     -0.227432
    139 C48         4.7180    2.5130   -3.2550 c3        1 MOL     -0.032181
    140 C49         5.4680    1.1890   -3.0690 c3        1 MOL     -0.029335
    141 H60         7.3810    2.9810   -1.1820 h1        1 MOL      0.077882
    142 H61         5.3760    4.4680   -2.3190 hc        1 MOL      0.086131
    143 H62         6.5590    3.7170   -3.3150 hc        1 MOL      0.086131
    144 H63         3.7430    2.4710   -2.7600 hc        1 MOL      0.054646
    145 H64         4.5810    2.5800   -4.3340 hc        1 MOL      0.054646
    146 H65         4.6000    0.5240   -2.9760 h1        1 MOL      0.035893
    147 H66         6.0410    1.0450   -3.9810 h1        1 MOL      0.035893
    148 N13         4.6300    2.2730    0.3140 n         1 MOL     -0.212551
    149 C50         3.9830    2.4830    1.6180 c3        1 MOL     -0.161531
    150 C51         4.9450    1.9360    2.7040 c         1 MOL      0.472936
    151 O21         5.1040    2.5370    3.7650 o         1 MOL     -0.551083
    152 C52         2.6480    1.7960    1.7410 c3        1 MOL      0.103661
    153 C53         1.7430    2.2560    0.5590 c3        1 MOL     -0.104985
    154 C54         0.4570    1.4740    0.3910 c         1 MOL      0.679344
    155 O22        -0.4260    1.8150   -0.4160 o         1 MOL     -0.718838
    156 O23         0.3030    0.4440    1.0820 o         1 MOL     -0.718838
    157 H67         4.4260    1.4300   -0.2120 hn        1 MOL      0.222285
    158 H68         3.7330    3.5430    1.7400 h1        1 MOL      0.123777
    159 H69         2.1820    2.0590    2.6970 hc        1 MOL     -0.004735
    160 H70         2.9310    0.7450    1.6800 hc        1 MOL     -0.004735
    161 H71         2.2350    2.0010   -0.3800 hc        1 MOL      0.039102
    162 H72         1.5030    3.3050    0.7100 hc        1 MOL      0.039102
    163 N14         5.5690    0.7690    2.4120 n         1 MOL     -0.079784
    164 C55         6.5580    0.1500    3.2500 c3        1 MOL     -0.268877
    165 H73         7.5310    0.2010    2.7610 h1        1 MOL      0.085875
    166 H74         6.6040    0.6720    4.2050 h1        1 MOL      0.085875
    167 H75         6.2910   -0.8940    3.4180 h1        1 MOL      0.085875
    168 H76         5.4180    0.2360    1.5750 hn        1 MOL      0.141502
    169 Ca1        -2.0760   -0.0860   -0.1160 Ca        1 MOL      1.582814
    170 O24        -1.7840    0.2030    2.5630 oh        1 MOL     -0.749777
    171 H77        -1.7330    0.3100    3.5030 ho        1 MOL      0.364681
    172 H78        -0.8770    0.2980    2.2620 ho        1 MOL      0.364681
    173 O25        -4.6270   -0.7000    1.0410 oh        1 MOL     -0.749777
    174 H79        -4.9090   -1.1640    1.8210 ho        1 MOL      0.364681
    175 H80        -4.9240    0.1930    1.1590 ho        1 MOL      0.364681
@<TRIPOS>BOND
     1    1    2 1   
     2    1    4 1   
     3    1    5 1   
     4    1    6 1   
     5    2    3 2   
     6    2    7 1   
     7    7    8 1   
     8    7   15 1   
     9    8    9 1   
    10    8   11 1   
    11    8   16 1   
    12    9   10 2   
    13    9   19 1   
    14   11   12 1   
    15   11   17 1   
    16   11   18 1   
    17   12   13 1   
    18   12   14 1   
    19   19   20 1   
    20   19   24 1   
    21   20   21 1   
    22   20   23 1   
    23   20   25 1   
    24   21   22 2   
    25   21   29 1   
    26   23   26 1   
    27   23   27 1   
    28   23   28 1   
    29   29   30 1   
    30   29   37 1   
    31   30   31 1   
    32   30   33 1   
    33   30   38 1   
    34   31   32 2   
    35   31   41 1   
    36   33   34 1   
    37   33   39 1   
    38   33   40 1   
    39   34   35 1   
    40   34   36 1   
    41   41   42 1   
    42   41   45 1   
    43   42   43 1   
    44   42   46 1   
    45   42   47 1   
    46   43   44 2   
    47   43   48 1   
    48   48   49 1   
    49   48   56 1   
    50   49   50 1   
    51   49   52 1   
    52   49   57 1   
    53   50   51 2   
    54   50   62 1   
    55   52   53 1   
    56   52   58 1   
    57   52   59 1   
    58   53   54 1   
    59   53   55 2   
    60   54   60 1   
    61   54   61 1   
    62   62   63 1   
    63   62   66 1   
    64   63   64 1   
    65   63   67 1   
    66   63   68 1   
    67   64   65 2   
    68   64   69 1   
    69   69   70 1   
    70   69   76 1   
    71   70   71 1   
    72   70   73 1   
    73   70   77 1   
    74   71   72 2   
    75   71   83 1   
    76   73   74 1   
    77   73   75 1   
    78   73   78 1   
    79   74   80 1   
    80   74   81 1   
    81   74   82 1   
    82   75   79 1   
    83   83   84 1   
    84   83   91 1   
    85   84   85 1   
    86   84   87 1   
    87   84   92 1   
    88   85   86 2   
    89   85  102 1   
    90   87   88 1   
    91   87   89 1   
    92   87   93 1   
    93   88   90 1   
    94   88   94 1   
    95   88   95 1   
    96   89   96 1   
    97   89   97 1   
    98   89   98 1   
    99   90   99 1   
   100   90  100 1   
   101   90  101 1   
   102  102  103 1   
   103  102  110 1   
   104  103  104 1   
   105  103  106 1   
   106  103  111 1   
   107  104  105 2   
   108  104  114 1   
   109  106  107 1   
   110  106  112 1   
   111  106  113 1   
   112  107  108 1   
   113  107  109 1   
   114  114  115 1   
   115  114  125 1   
   116  115  116 1   
   117  115  118 1   
   118  115  126 1   
   119  116  117 2   
   120  116  134 1   
   121  118  119 1   
   122  118  127 1   
   123  118  128 1   
   124  119  120 ar  
   125  119  121 ar  
   126  120  122 ar  
   127  120  129 1   
   128  121  123 ar  
   129  121  130 1   
   130  122  124 ar  
   131  122  131 1   
   132  123  124 ar  
   133  123  132 1   
   134  124  133 1   
   135  134  135 1   
   136  134  140 1   
   137  135  136 1   
   138  135  138 1   
   139  135  141 1   
   140  136  137 2   
   141  136  148 1   
   142  138  139 1   
   143  138  142 1   
   144  138  143 1   
   145  139  140 1   
   146  139  144 1   
   147  139  145 1   
   148  140  146 1   
   149  140  147 1   
   150  148  149 1   
   151  148  157 1   
   152  149  150 1   
   153  149  152 1   
   154  149  158 1   
   155  150  151 2   
   156  150  163 1   
   157  152  153 1   
   158  152  159 1   
   159  152  160 1   
   160  153  154 1   
   161  153  161 1   
   162  153  162 1   
   163  154  155 1   
   164  154  156 1   
   165  163  164 1   
   166  163  168 1   
   167  164  165 1   
   168  164  166 1   
   169  164  167 1   
   170  170  171 1   
   171  170  172 1   
   172  173  174 1   
   173  173  175 1   
@<TRIPOS>SUBSTRUCTURE
     1 MOL         1 TEMP              0 ****  ****    0 ROOT
