@<TRIPOS>MOLECULE
MOL
  175   173     1     0     0
SMALL
resp


@<TRIPOS>ATOM
      1 C1          0.4640    4.2700    5.2860 c3        1 MOL     -0.303780
      2 C2         -0.3200    4.2860    3.9010 c         1 MOL      0.665681
      3 O1          0.4080    4.3260    2.8690 o         1 MOL     -0.536409
      4 H1          0.3210    3.3060    5.7730 hc        1 MOL      0.070491
      5 H2          1.5270    4.4320    5.1040 hc        1 MOL      0.070491
      6 H3          0.0810    5.0620    5.9310 hc        1 MOL      0.070491
      7 N1         -1.6210    4.2100    3.8500 n         1 MOL     -0.609558
      8 C3         -2.3020    3.6810    2.6230 c3        1 MOL      0.187714
      9 C4         -2.3450    4.7700    1.5560 c         1 MOL      0.547678
     10 O2         -2.4770    5.9570    1.9450 o         1 MOL     -0.582117
     11 C5         -3.7100    3.1830    3.0430 c3        1 MOL     -0.340528
     12 C6         -4.4610    2.4610    1.9030 c         1 MOL      0.721211
     13 O3         -5.5470    1.8640    2.1090 o         1 MOL     -0.668035
     14 O4         -3.7530    2.0770    0.8900 o         1 MOL     -0.668035
     15 H4         -2.1410    4.2330    4.7240 hn        1 MOL      0.323955
     16 H5         -1.7580    2.8900    2.1080 h1        1 MOL      0.030809
     17 H6         -4.3490    4.0260    3.3180 hc        1 MOL      0.087958
     18 H7         -3.7450    2.4760    3.8670 hc        1 MOL      0.087958
     19 N2         -2.4060    4.4440    0.3070 n         1 MOL     -0.474991
     20 C7         -2.5380    5.3960   -0.8120 c3        1 MOL      0.287957
     21 C8         -3.4080    4.8260   -1.9760 c         1 MOL      0.571948
     22 O5         -3.3600    5.3810   -3.0570 o         1 MOL     -0.569522
     23 C9         -1.1390    5.8140   -1.3310 c3        1 MOL     -0.411896
     24 H8         -2.3950    3.4640    0.0470 hn        1 MOL      0.359778
     25 H9         -3.1220    6.2290   -0.4260 h1        1 MOL     -0.002638
     26 H10        -0.5040    6.2040   -0.5470 hc        1 MOL      0.106618
     27 H11        -0.7570    4.9400   -1.8700 hc        1 MOL      0.106618
     28 H12        -1.2130    6.6640   -2.0050 hc        1 MOL      0.106618
     29 N3         -4.2750    3.8520   -1.6890 n         1 MOL     -0.510927
     30 C10        -5.2270    3.2470   -2.6860 c3        1 MOL      0.154649
     31 C11        -6.3790    2.4530   -2.0500 c         1 MOL      0.333881
     32 O6         -7.4390    2.4990   -2.6330 o         1 MOL     -0.567788
     33 C12        -4.5630    2.3470   -3.6880 c3        1 MOL     -0.006095
     34 C13        -3.3870    1.4790   -3.1400 c         1 MOL      0.620336
     35 O7         -2.2560    1.3400   -3.6710 o         1 MOL     -0.674541
     36 O8         -3.5200    0.8790   -2.0880 o         1 MOL     -0.674541
     37 H13        -4.0790    3.3360   -0.8440 hn        1 MOL      0.148105
     38 H14        -5.6090    4.0670   -3.2850 h1        1 MOL      0.061480
     39 H15        -4.2330    2.7820   -4.6290 hc        1 MOL     -0.006269
     40 H16        -5.3400    1.6950   -4.0960 hc        1 MOL     -0.006269
     41 N4         -6.2380    1.7910   -0.9330 n         1 MOL     -0.000810
     42 C14        -7.2960    0.8740   -0.3920 c3        1 MOL     -0.350401
     43 C15        -7.2660   -0.5450   -0.9970 c         1 MOL      0.585972
     44 O9         -8.2580   -1.2310   -0.9580 o         1 MOL     -0.634407
     45 H17        -5.3340    1.9070   -0.5000 hn        1 MOL      0.086450
     46 H18        -8.2190    1.3830   -0.6760 h1        1 MOL      0.145777
     47 H19        -7.2920    0.8050    0.6950 h1        1 MOL      0.145777
     48 N5         -6.2260   -0.9900   -1.6380 n         1 MOL     -0.146124
     49 C16        -6.0070   -2.3500   -2.2780 c3        1 MOL     -0.184347
     50 C17        -5.8700   -3.4820   -1.2100 c         1 MOL      0.509378
     51 O10        -5.5150   -4.6230   -1.4850 o         1 MOL     -0.497608
     52 C18        -4.8170   -2.3880   -3.2370 c3        1 MOL      0.030301
     53 C19        -3.4390   -2.1000   -2.6430 c         1 MOL      0.416602
     54 N6         -2.4150   -2.1850   -3.4560 n         1 MOL     -0.560399
     55 O11        -3.2750   -1.8250   -1.4560 o         1 MOL     -0.452253
     56 H20        -5.4890   -0.3010   -1.7330 hn        1 MOL      0.138629
     57 H21        -6.8790   -2.6020   -2.8860 h1        1 MOL      0.126167
     58 H22        -5.0300   -1.5780   -3.9440 hc        1 MOL      0.027060
     59 H23        -4.8330   -3.2790   -3.8750 hc        1 MOL      0.027060
     60 H24        -2.5170   -2.3710   -4.4430 hn        1 MOL      0.313085
     61 H25        -1.4940   -1.9370   -3.1180 hn        1 MOL      0.313085
     62 N7         -6.1700   -3.1520    0.0530 n         1 MOL     -0.284213
     63 C20        -6.2120   -4.1650    1.1790 c3        1 MOL     -0.284062
     64 C21        -4.8630   -4.7500    1.4960 c         1 MOL      0.490998
     65 O12        -4.7960   -5.8580    2.1360 o         1 MOL     -0.574512
     66 H26        -6.0640   -2.2080    0.4040 hn        1 MOL      0.237134
     67 H27        -6.8760   -4.9570    0.8330 h1        1 MOL      0.147495
     68 H28        -6.6630   -3.6790    2.0400 h1        1 MOL      0.147495
     69 N8         -3.7370   -4.1160    1.1160 n         1 MOL     -0.095494
     70 C22        -2.3250   -4.5370    1.2390 c3        1 MOL     -0.340825
     71 C23        -1.4440   -3.3320    1.4470 c         1 MOL      0.615382
     72 O13        -1.6360   -2.2870    0.8250 o         1 MOL     -0.609677
     73 C24        -1.9110   -5.3030   -0.0470 c3        1 MOL      0.527478
     74 C25        -2.3140   -6.7820   -0.1270 c3        1 MOL     -0.493986
     75 O14        -2.2990   -4.6570   -1.2430 oh        1 MOL     -0.565965
     76 H29        -3.8680   -3.1820    0.7560 hn        1 MOL      0.090757
     77 H30        -2.2330   -5.1990    2.1000 h1        1 MOL      0.128143
     78 H31        -0.8330   -5.3810   -0.1470 h1        1 MOL     -0.007609
     79 H32        -1.9280   -3.7680   -1.2450 ho        1 MOL      0.317435
     80 H33        -2.1130   -7.2570    0.8320 hc        1 MOL      0.126616
     81 H34        -3.4000   -6.8640   -0.2210 hc        1 MOL      0.126616
     82 H35        -1.6640   -7.3190   -0.8200 hc        1 MOL      0.126616
     83 N9         -0.4670   -3.4930    2.2990 n         1 MOL     -0.433202
     84 C26         0.7550   -2.6070    2.3950 c3        1 MOL      0.113827
     85 C27         1.6930   -2.8670    1.1610 c         1 MOL      0.442601
     86 O15         2.1250   -4.0050    1.0250 o         1 MOL     -0.589384
     87 C28         1.5780   -2.8150    3.6800 c3        1 MOL      0.286803
     88 C29         0.7090   -2.5720    4.9750 c3        1 MOL     -0.215791
     89 C30         2.9730   -2.0190    3.6550 c3        1 MOL     -0.302326
     90 C31        -0.1430   -3.7930    5.4080 c3        1 MOL     -0.015274
     91 H36        -0.3280   -4.4290    2.6640 hn        1 MOL      0.253498
     92 H37         0.4180   -1.5680    2.4030 h1        1 MOL      0.010885
     93 H38         1.7810   -3.8960    3.6760 hc        1 MOL     -0.051787
     94 H39         0.1510   -1.6380    4.9300 hc        1 MOL      0.048290
     95 H40         1.4160   -2.4360    5.7930 hc        1 MOL      0.048290
     96 H41         3.2890   -2.0860    4.6910 hc        1 MOL      0.068933
     97 H42         3.7130   -2.6250    3.1370 hc        1 MOL      0.068933
     98 H43         2.8800   -0.9800    3.3260 hc        1 MOL      0.068933
     99 H44         0.3660   -4.7310    5.6550 hc        1 MOL      0.005797
    100 H45        -0.6820   -3.6800    6.3530 hc        1 MOL      0.005797
    101 H46        -0.9090   -4.0470    4.6840 hc        1 MOL      0.005797
    102 N10         1.8150   -1.8930    0.2630 n         1 MOL     -0.128293
    103 C32         2.6200   -1.9220   -0.9640 c3        1 MOL     -0.003791
    104 C33         4.0900   -1.5020   -0.6090 c         1 MOL      0.504765
    105 O16         4.4190   -0.7580    0.3830 o         1 MOL     -0.411416
    106 C34         2.1560   -0.9010   -2.0350 c3        1 MOL     -0.420149
    107 C35         0.6620   -1.0220   -2.2820 c         1 MOL      0.835449
    108 O17        -0.1580   -0.5390   -1.4780 o         1 MOL     -0.690766
    109 O18         0.3470   -1.6840   -3.3140 o         1 MOL     -0.690766
    110 H47         1.3820   -1.0140    0.4840 hn        1 MOL      0.119708
    111 H48         2.6880   -2.9050   -1.4440 h1        1 MOL      0.102702
    112 H49         2.6900   -1.1040   -2.9560 hc        1 MOL      0.123572
    113 H50         2.2950    0.1280   -1.6950 hc        1 MOL      0.123572
    114 N11         5.0100   -1.7320   -1.5580 n         1 MOL     -0.786129
    115 C36         6.4330   -1.4120   -1.3450 c3        1 MOL      0.727584
    116 C37         6.7670    0.0950   -1.1670 c         1 MOL      0.054762
    117 O19         7.5770    0.3230   -0.2490 o         1 MOL     -0.469532
    118 C38         7.3950   -1.9340   -2.4340 c3        1 MOL     -0.461940
    119 C39         8.8690   -1.9750   -2.0110 ca        1 MOL      0.136822
    120 C40         9.7400   -1.1980   -2.7280 ca        1 MOL     -0.078626
    121 C41         9.3970   -2.7130   -0.9830 ca        1 MOL     -0.078626
    122 C42        11.1460   -1.2020   -2.4440 ca        1 MOL     -0.215336
    123 C43        10.7590   -2.7910   -0.6640 ca        1 MOL     -0.215336
    124 C44        11.6480   -1.9750   -1.3790 ca        1 MOL     -0.029513
    125 H51         4.7250   -2.1820   -2.4200 hn        1 MOL      0.361789
    126 H52         6.7490   -1.9430   -0.4530 h1        1 MOL      0.002367
    127 H53         7.2470   -1.3000   -3.3080 hc        1 MOL      0.098352
    128 H54         7.1170   -2.9830   -2.5820 hc        1 MOL      0.098352
    129 H55         9.4860   -0.4790   -3.4970 ha        1 MOL      0.090790
    130 H56         8.6840   -3.4000   -0.5390 ha        1 MOL      0.090790
    131 H57        11.8100   -0.5090   -2.9250 ha        1 MOL      0.133754
    132 H58        11.1700   -3.4340    0.0950 ha        1 MOL      0.133754
    133 H59        12.6900   -1.9260   -1.1030 ha        1 MOL      0.088054
    134 N12         6.1850    1.0580   -1.8800 n         1 MOL      0.107417
    135 C45         6.4630    2.4380   -1.4850 c3        1 MOL      0.059947
    136 C46         5.7910    2.9240   -0.2180 c         1 MOL      0.193971
    137 O20         6.2430    3.8990    0.3780 o         1 MOL     -0.506407
    138 C47         6.0420    3.2630   -2.6190 c3        1 MOL      0.005050
    139 C48         5.9890    2.3510   -3.8510 c3        1 MOL     -0.185885
    140 C49         5.6190    1.0680   -3.2250 c3        1 MOL      0.057003
    141 H60         7.5350    2.6030   -1.4210 h1        1 MOL      0.075798
    142 H61         5.0460    3.6490   -2.4140 hc        1 MOL      0.028490
    143 H62         6.7960    4.0500   -2.7360 hc        1 MOL      0.028490
    144 H63         5.2560    2.6820   -4.5860 hc        1 MOL      0.060634
    145 H64         7.0520    2.2860   -4.1160 hc        1 MOL      0.060634
    146 H65         4.5300    0.9380   -3.2190 h1        1 MOL      0.028668
    147 H66         5.9960    0.2440   -3.8230 h1        1 MOL      0.028668
    148 N13         4.8010    2.2150    0.2890 n         1 MOL      0.112876
    149 C50         4.1970    2.3200    1.5960 c3        1 MOL     -0.139670
    150 C51         5.0570    1.7150    2.7140 c         1 MOL      0.481033
    151 O21         5.1560    2.1960    3.8560 o         1 MOL     -0.586079
    152 C52         2.7900    1.7290    1.5640 c3        1 MOL      0.002543
    153 C53         1.8960    2.3580    0.6090 c3        1 MOL     -0.261343
    154 C54         0.4380    1.7430    0.6230 c         1 MOL      0.642075
    155 O22        -0.4030    2.2160   -0.1610 o         1 MOL     -0.667585
    156 O23         0.1360    0.6690    1.2600 o         1 MOL     -0.667585
    157 H67         4.5830    1.3650   -0.2090 hn        1 MOL     -0.044416
    158 H68         4.1550    3.4010    1.7530 h1        1 MOL      0.109282
    159 H69         2.4380    1.8470    2.5890 hc        1 MOL      0.034947
    160 H70         2.8430    0.6500    1.3870 hc        1 MOL      0.034947
    161 H71         2.3400    2.2200   -0.3800 hc        1 MOL      0.104902
    162 H72         1.7860    3.4230    0.8240 hc        1 MOL      0.104902
    163 N14         5.6730    0.5710    2.4620 n         1 MOL      0.000315
    164 C55         6.7100   -0.0330    3.2830 c3        1 MOL     -0.256685
    165 H73         6.5930   -1.1170    3.2760 h1        1 MOL      0.086393
    166 H74         7.6900    0.2290    2.8820 h1        1 MOL      0.086393
    167 H75         6.6260    0.3350    4.3060 h1        1 MOL      0.086393
    168 H76         5.4110    0.0650    1.6230 hn        1 MOL      0.067562
    169 Ca1        -2.2030    0.0970    0.0190 Ca        1 MOL      1.702620
    170 O24        -2.0970    0.4050    2.6670 oh        1 MOL     -0.788658
    171 H77        -1.1710    0.5240    2.8620 ho        1 MOL      0.390095
    172 H78        -2.5240    0.3800    3.5210 ho        1 MOL      0.390095
    173 O25        -4.8370   -0.6110    1.2050 oh        1 MOL     -0.788658
    174 H79        -5.3560   -1.1490    1.7900 ho        1 MOL      0.390095
    175 H80        -5.0620    0.2870    1.4290 ho        1 MOL      0.390095
@<TRIPOS>BOND
     1    1    2 1   
     2    1    4 1   
     3    1    5 1   
     4    1    6 1   
     5    2    3 2   
     6    2    7 1   
     7    7    8 1   
     8    7   15 1   
     9    8    9 1   
    10    8   11 1   
    11    8   16 1   
    12    9   10 2   
    13    9   19 1   
    14   11   12 1   
    15   11   17 1   
    16   11   18 1   
    17   12   13 1   
    18   12   14 1   
    19   19   20 1   
    20   19   24 1   
    21   20   21 1   
    22   20   23 1   
    23   20   25 1   
    24   21   22 2   
    25   21   29 1   
    26   23   26 1   
    27   23   27 1   
    28   23   28 1   
    29   29   30 1   
    30   29   37 1   
    31   30   31 1   
    32   30   33 1   
    33   30   38 1   
    34   31   32 2   
    35   31   41 1   
    36   33   34 1   
    37   33   39 1   
    38   33   40 1   
    39   34   35 1   
    40   34   36 1   
    41   41   42 1   
    42   41   45 1   
    43   42   43 1   
    44   42   46 1   
    45   42   47 1   
    46   43   44 2   
    47   43   48 1   
    48   48   49 1   
    49   48   56 1   
    50   49   50 1   
    51   49   52 1   
    52   49   57 1   
    53   50   51 2   
    54   50   62 1   
    55   52   53 1   
    56   52   58 1   
    57   52   59 1   
    58   53   54 1   
    59   53   55 2   
    60   54   60 1   
    61   54   61 1   
    62   62   63 1   
    63   62   66 1   
    64   63   64 1   
    65   63   67 1   
    66   63   68 1   
    67   64   65 2   
    68   64   69 1   
    69   69   70 1   
    70   69   76 1   
    71   70   71 1   
    72   70   73 1   
    73   70   77 1   
    74   71   72 2   
    75   71   83 1   
    76   73   74 1   
    77   73   75 1   
    78   73   78 1   
    79   74   80 1   
    80   74   81 1   
    81   74   82 1   
    82   75   79 1   
    83   83   84 1   
    84   83   91 1   
    85   84   85 1   
    86   84   87 1   
    87   84   92 1   
    88   85   86 2   
    89   85  102 1   
    90   87   88 1   
    91   87   89 1   
    92   87   93 1   
    93   88   90 1   
    94   88   94 1   
    95   88   95 1   
    96   89   96 1   
    97   89   97 1   
    98   89   98 1   
    99   90   99 1   
   100   90  100 1   
   101   90  101 1   
   102  102  103 1   
   103  102  110 1   
   104  103  104 1   
   105  103  106 1   
   106  103  111 1   
   107  104  105 2   
   108  104  114 1   
   109  106  107 1   
   110  106  112 1   
   111  106  113 1   
   112  107  108 1   
   113  107  109 1   
   114  114  115 1   
   115  114  125 1   
   116  115  116 1   
   117  115  118 1   
   118  115  126 1   
   119  116  117 2   
   120  116  134 1   
   121  118  119 1   
   122  118  127 1   
   123  118  128 1   
   124  119  120 ar  
   125  119  121 ar  
   126  120  122 ar  
   127  120  129 1   
   128  121  123 ar  
   129  121  130 1   
   130  122  124 ar  
   131  122  131 1   
   132  123  124 ar  
   133  123  132 1   
   134  124  133 1   
   135  134  135 1   
   136  134  140 1   
   137  135  136 1   
   138  135  138 1   
   139  135  141 1   
   140  136  137 2   
   141  136  148 1   
   142  138  139 1   
   143  138  142 1   
   144  138  143 1   
   145  139  140 1   
   146  139  144 1   
   147  139  145 1   
   148  140  146 1   
   149  140  147 1   
   150  148  149 1   
   151  148  157 1   
   152  149  150 1   
   153  149  152 1   
   154  149  158 1   
   155  150  151 2   
   156  150  163 1   
   157  152  153 1   
   158  152  159 1   
   159  152  160 1   
   160  153  154 1   
   161  153  161 1   
   162  153  162 1   
   163  154  155 1   
   164  154  156 1   
   165  163  164 1   
   166  163  168 1   
   167  164  165 1   
   168  164  166 1   
   169  164  167 1   
   170  170  171 1   
   171  170  172 1   
   172  173  174 1   
   173  173  175 1   
@<TRIPOS>SUBSTRUCTURE
     1 MOL         1 TEMP              0 ****  ****    0 ROOT
