@<TRIPOS>MOLECULE
MOL
  183   181     1     0     0
SMALL
resp


@<TRIPOS>ATOM
      1 C1         -0.5780    1.1060    6.3020 c3        1 MOL     -0.458202
      2 C2         -0.8500    1.0140    4.8030 c         1 MOL      0.765166
      3 O1          0.0070    1.2970    3.9850 o         1 MOL     -0.575286
      4 H1          0.3680    0.6140    6.5300 hc        1 MOL      0.110110
      5 H2         -0.5220    2.1540    6.5980 hc        1 MOL      0.110110
      6 H3         -1.3830    0.6170    6.8480 hc        1 MOL      0.110110
      7 N1         -2.1110    0.7700    4.4110 n         1 MOL     -0.677123
      8 C3         -2.6880    0.9720    3.0670 c3        1 MOL      0.466110
      9 C4         -3.1920    2.4300    2.8660 c         1 MOL      0.349082
     10 O2         -4.0410    2.9030    3.6050 o         1 MOL     -0.594686
     11 C5         -3.8290   -0.0510    2.9770 c3        1 MOL     -0.308632
     12 C6         -4.6350    0.0770    1.6900 c         1 MOL      0.694495
     13 O3         -5.7140   -0.4990    1.6340 o         1 MOL     -0.556059
     14 O4         -4.0790    0.6910    0.7170 o         1 MOL     -0.556059
     15 H4         -2.6650    0.2860    5.0970 hn        1 MOL      0.305024
     16 H5         -1.9740    0.7080    2.2780 h1        1 MOL     -0.065303
     17 H6         -4.4810    0.3230    3.7580 hc        1 MOL      0.027413
     18 H7         -3.3920   -0.9780    3.3430 hc        1 MOL      0.027413
     19 N2         -2.6140    3.0470    1.8880 n         1 MOL      0.173723
     20 C7         -2.7910    4.4970    1.5710 c3        1 MOL     -0.281115
     21 C8         -3.9010    4.8200    0.5770 c         1 MOL      0.512886
     22 O5         -4.1040    6.0120    0.2750 o         1 MOL     -0.565428
     23 C9         -1.4260    5.2870    1.3460 c3        1 MOL      0.203938
     24 C10        -0.8090    5.2550   -0.0630 c3        1 MOL     -0.127334
     25 C11        -0.3840    4.7230    2.3550 c3        1 MOL     -0.279715
     26 C12         0.3300    6.2830   -0.2890 c3        1 MOL     -0.068726
     27 H8         -1.9190    2.5580    1.3440 hn        1 MOL      0.090406
     28 H9         -3.2070    5.0080    2.4430 h1        1 MOL      0.094696
     29 H10        -1.5630    6.3340    1.6290 hc        1 MOL     -0.010812
     30 H11        -1.5720    5.4280   -0.8170 hc        1 MOL      0.081067
     31 H12        -0.4160    4.2530   -0.2470 hc        1 MOL      0.081067
     32 H13         0.4160    5.4570    2.4020 hc        1 MOL      0.052106
     33 H14        -0.7510    4.3530    3.3110 hc        1 MOL      0.052106
     34 H15         0.0780    3.8440    1.8960 hc        1 MOL      0.052106
     35 H16         0.3770    6.6880   -1.3000 hc        1 MOL      0.020689
     36 H17         0.0940    7.1230    0.3700 hc        1 MOL      0.020689
     37 H18         1.2840    5.9150    0.0940 hc        1 MOL      0.020689
     38 N3         -4.4960    3.7570   -0.0500 n         1 MOL     -0.299963
     39 C13        -5.5210    3.8220   -1.0510 c3        1 MOL     -0.017729
     40 C14        -6.6330    2.7550   -1.0020 c         1 MOL      0.628162
     41 O6         -7.4790    2.8190   -1.8570 o         1 MOL     -0.550989
     42 C15        -4.7710    3.8890   -2.4540 c3        1 MOL     -0.059033
     43 C16        -3.7350    2.8310   -2.7260 c         1 MOL      0.731436
     44 O7         -3.4830    1.9220   -1.9500 o         1 MOL     -0.713854
     45 O8         -3.3030    2.7800   -3.8980 o         1 MOL     -0.713854
     46 H19        -4.2920    2.8700    0.3760 hn        1 MOL      0.005736
     47 H20        -6.0150    4.7920   -0.9430 h1        1 MOL      0.053865
     48 H21        -4.2950    4.8650   -2.5040 hc        1 MOL      0.011457
     49 H22        -5.5300    3.9420   -3.2420 hc        1 MOL      0.011457
     50 N4         -6.7160    2.0460    0.0930 n         1 MOL     -0.539350
     51 C17        -7.9180    1.2520    0.4560 c3        1 MOL      0.063961
     52 C18        -8.2460    0.0380   -0.4440 c         1 MOL      0.392875
     53 O9         -9.3910   -0.0340   -0.8610 o         1 MOL     -0.566647
     54 H23        -5.9150    2.1590    0.6920 hn        1 MOL      0.354707
     55 H24        -8.8560    1.8040    0.6010 h1        1 MOL      0.029794
     56 H25        -7.6570    0.7480    1.3860 h1        1 MOL      0.029794
     57 N5         -7.2470   -0.7740   -0.8140 n         1 MOL     -0.055110
     58 C19        -7.3910   -2.0880   -1.3990 c3        1 MOL     -0.035185
     59 C20        -7.1940   -3.2980   -0.4690 c         1 MOL      0.391188
     60 O10        -7.6630   -4.3200   -0.8370 o         1 MOL     -0.535391
     61 C21        -6.3050   -2.0730   -2.4720 c3        1 MOL     -0.028721
     62 C22        -4.8630   -1.6670   -2.1020 c         1 MOL      0.493276
     63 O11        -4.1330   -1.1230   -3.0080 o         1 MOL     -0.631764
     64 O12        -4.3090   -1.9360   -1.0140 o         1 MOL     -0.631764
     65 H26        -6.3570   -0.5240   -0.4100 hn        1 MOL      0.098421
     66 H27        -8.3830   -2.0540   -1.8400 h1        1 MOL      0.073099
     67 H28        -6.6520   -1.4130   -3.2680 hc        1 MOL      0.020896
     68 H29        -6.3310   -3.0610   -2.9410 hc        1 MOL      0.020896
     69 N6         -6.5640   -3.0980    0.6840 n         1 MOL     -0.072189
     70 C23        -6.1240   -4.1000    1.6930 c3        1 MOL     -0.085561
     71 C24        -4.8190   -4.9020    1.2910 c         1 MOL      0.559907
     72 O13        -4.7130   -6.1150    1.5880 o         1 MOL     -0.581236
     73 H30        -6.2700   -2.1710    0.9060 hn        1 MOL      0.042780
     74 H31        -6.9380   -4.7930    1.8770 h1        1 MOL      0.041969
     75 H32        -5.8610   -3.5460    2.6040 h1        1 MOL      0.041969
     76 N7         -3.8250   -4.1660    0.7260 n         1 MOL     -0.241979
     77 C25        -2.3820   -4.5540    0.7200 c3        1 MOL     -0.176581
     78 C26        -1.3800   -3.3850    0.9370 c         1 MOL      0.509880
     79 O14        -1.7220   -2.2330    0.7030 o         1 MOL     -0.612739
     80 C27        -2.1620   -5.3390   -0.5580 c3        1 MOL     -0.080587
     81 C28        -2.6170   -4.6550   -1.8840 c3        1 MOL     -0.260407
     82 C29        -1.5560   -3.6200   -2.3120 c         1 MOL      0.612916
     83 N8         -0.5950   -4.1260   -3.0450 n         1 MOL     -0.681180
     84 O15        -1.4940   -2.4560   -1.9330 o         1 MOL     -0.565208
     85 H33        -4.1280   -3.2930    0.3260 hn        1 MOL      0.225967
     86 H34        -2.1430   -5.2990    1.4770 h1        1 MOL      0.080818
     87 H35        -2.7160   -6.2800   -0.4750 hc        1 MOL      0.038708
     88 H36        -1.0940   -5.4900   -0.6600 hc        1 MOL      0.038708
     89 H37        -3.6270   -4.2610   -1.7620 hc        1 MOL      0.105001
     90 H38        -2.6340   -5.3490   -2.7200 hc        1 MOL      0.105001
     91 H39        -0.7790   -5.0150   -3.4870 hn        1 MOL      0.325049
     92 H40         0.3190   -3.6860   -3.0270 hn        1 MOL      0.325049
     93 N9         -0.2060   -3.7020    1.5110 n         1 MOL     -0.134764
     94 C30         0.8380   -2.7230    1.6630 c3        1 MOL      0.010099
     95 C31         2.0040   -3.0110    0.6850 c         1 MOL      0.238774
     96 O16         2.8490   -3.8900    0.9610 o         1 MOL     -0.540721
     97 C32         1.2940   -2.7720    3.1490 c3        1 MOL      0.107131
     98 C33         2.2720   -1.5330    3.3930 c3        1 MOL     -0.201114
     99 C34         0.1780   -2.7540    4.1890 c3        1 MOL     -0.201114
    100 H41        -0.0280   -4.6670    1.7090 hn        1 MOL      0.225213
    101 H42         0.4800   -1.7240    1.4380 h1        1 MOL      0.162115
    102 H43         1.7590   -3.7360    3.3920 hc        1 MOL     -0.007015
    103 H44         1.6730   -0.6290    3.3730 hc        1 MOL      0.038836
    104 H45         2.6780   -1.5580    4.4050 hc        1 MOL      0.038836
    105 H46         3.1230   -1.6670    2.7070 hc        1 MOL      0.038836
    106 H47         0.5890   -2.6740    5.2060 hc        1 MOL      0.038836
    107 H48        -0.5180   -1.9450    3.9630 hc        1 MOL      0.038836
    108 H49        -0.4530   -3.6290    4.0300 hc        1 MOL      0.038836
    109 N10         2.2050   -2.2530   -0.3770 n         1 MOL     -0.064153
    110 C35         3.4310   -2.3510   -1.2320 c3        1 MOL     -0.001885
    111 C36         4.6780   -1.8140   -0.5610 c         1 MOL      0.544018
    112 O17         4.6760   -1.2640    0.5610 o         1 MOL     -0.389053
    113 C37         3.1640   -1.5430   -2.4960 c3        1 MOL     -0.543937
    114 C38         1.9120   -2.0360   -3.2890 c         1 MOL      0.772377
    115 N11         0.7810   -1.4030   -3.3020 n         1 MOL     -0.758885
    116 O18         1.9630   -3.1410   -3.8310 o         1 MOL     -0.632791
    117 H50         1.6070   -1.4750   -0.5960 hn        1 MOL      0.151199
    118 H51         3.7360   -3.3680   -1.4720 h1        1 MOL      0.101818
    119 H52         3.9480   -1.8000   -3.2010 hc        1 MOL      0.134462
    120 H53         3.0180   -0.4740   -2.3460 hc        1 MOL      0.134462
    121 H54         0.6930   -0.6480   -2.6430 hn        1 MOL      0.380530
    122 H55        -0.0700   -1.8010   -3.6670 hn        1 MOL      0.380530
    123 N12         5.8200   -1.9600   -1.2640 n         1 MOL     -0.660766
    124 C39         7.0320   -1.3150   -0.8280 c3        1 MOL      0.247759
    125 C40         6.8900    0.1990   -0.6990 c         1 MOL      0.395263
    126 O19         7.2210    0.7930    0.3150 o         1 MOL     -0.461035
    127 C41         8.2590   -1.7220   -1.6380 c3        1 MOL     -0.011836
    128 C42         9.6580   -1.4910   -0.9180 ca        1 MOL     -0.047728
    129 C43         9.8290   -2.1940    0.2930 ca        1 MOL     -0.184548
    130 C44        10.4880   -0.3920   -1.2530 ca        1 MOL     -0.184548
    131 C45        11.0670   -2.0460    1.0050 ca        1 MOL     -0.175966
    132 C46        11.7300   -0.2120   -0.4900 ca        1 MOL     -0.175966
    133 C47        12.0500   -1.1400    0.5290 ca        1 MOL      0.242871
    134 O20        13.2660   -1.1260    1.1400 oh        1 MOL     -0.480444
    135 H56         5.8110   -2.5800   -2.0580 hn        1 MOL      0.337329
    136 H57         7.0870   -1.7110    0.1810 h1        1 MOL      0.082612
    137 H58         8.2720   -1.2570   -2.6260 hc        1 MOL      0.016955
    138 H59         8.1650   -2.7960   -1.8520 hc        1 MOL      0.016955
    139 H60         9.0680   -2.8970    0.6060 ha        1 MOL      0.146281
    140 H61        10.1980    0.2980   -2.0300 ha        1 MOL      0.146281
    141 H62        11.2730   -2.6830    1.8520 ha        1 MOL      0.123599
    142 H63        12.3770    0.5680   -0.8510 ha        1 MOL      0.123599
    143 H64        13.8420   -0.4350    0.8010 ho        1 MOL      0.356626
    144 N13         6.2510    0.8570   -1.6740 n         1 MOL     -0.316323
    145 C48         5.9740    2.3290   -1.4980 c3        1 MOL     -0.017863
    146 C49         5.1760    2.7560   -0.2650 c         1 MOL      0.378380
    147 O21         5.3020    3.9000    0.1790 o         1 MOL     -0.535730
    148 C50         5.3130    2.9980   -2.7440 c3        1 MOL     -0.141859
    149 C51         3.8670    2.6290   -2.9730 c3        1 MOL     -0.146375
    150 C52         3.1830    3.2100   -4.2060 c         1 MOL      0.715630
    151 O22         3.0100    4.4180   -4.3080 o         1 MOL     -0.721415
    152 O23         2.7240    2.4330   -5.1080 o         1 MOL     -0.721415
    153 H65         6.3370    0.3820   -2.5670 hn        1 MOL      0.265630
    154 H66         6.9680    2.7530   -1.4100 h1        1 MOL      0.066915
    155 H67         5.8790    2.7730   -3.6460 hc        1 MOL      0.063318
    156 H68         5.3880    4.0750   -2.6070 hc        1 MOL      0.063318
    157 H69         3.2000    2.8790   -2.1420 hc        1 MOL      0.012557
    158 H70         3.6620    1.5600   -2.9090 hc        1 MOL      0.012557
    159 N14         4.4970    1.8600    0.3720 n         1 MOL     -0.092647
    160 C53         3.5910    1.9850    1.5900 c3        1 MOL     -0.088931
    161 C54         4.3240    1.5000    2.8470 c         1 MOL      0.488839
    162 O24         4.1100    1.9160    3.9490 o         1 MOL     -0.562906
    163 C55         2.2670    1.2290    1.3180 c3        1 MOL      0.007287
    164 C56         1.6060    1.6330    0.0300 c3        1 MOL     -0.286317
    165 C57         0.2590    0.9330   -0.2070 c         1 MOL      0.660103
    166 O25        -0.8070    1.4070    0.2690 o         1 MOL     -0.729307
    167 O26         0.2030   -0.1270   -0.8280 o         1 MOL     -0.729307
    168 H71         4.5200    0.9540   -0.0680 hn        1 MOL      0.150370
    169 H72         3.4730    3.0420    1.7970 h1        1 MOL      0.109737
    170 H73         1.6300    1.4670    2.1610 hc        1 MOL      0.090434
    171 H74         2.3820    0.1430    1.2610 hc        1 MOL      0.090434
    172 H75         2.2770    1.3120   -0.7690 hc        1 MOL      0.142464
    173 H76         1.4760    2.7140    0.0260 hc        1 MOL      0.142464
    174 N15         5.3540    0.6810    2.5970 n         1 MOL     -0.031190
    175 C58         6.2270    0.1540    3.7000 c3        1 MOL     -0.204136
    176 H77         7.0660   -0.3910    3.2700 h1        1 MOL      0.077702
    177 H78         6.6020    0.9860    4.2960 h1        1 MOL      0.077702
    178 H79         5.6470   -0.5160    4.3340 h1        1 MOL      0.077702
    179 H80         5.5570    0.5030    1.6300 hn        1 MOL     -0.027920
    180 Ca1        -2.2590   -0.2310   -0.9260 Ca        1 MOL      1.737673
    181 O27        -1.3920    0.6930   -3.3100 oh        1 MOL     -0.869561
    182 H81        -1.9870    1.4200   -3.4710 ho        1 MOL      0.406970
    183 H82        -0.7640    0.7320   -4.0340 ho        1 MOL      0.406970
@<TRIPOS>BOND
     1    1    2 1   
     2    1    4 1   
     3    1    5 1   
     4    1    6 1   
     5    2    3 2   
     6    2    7 1   
     7    7    8 1   
     8    7   15 1   
     9    8    9 1   
    10    8   11 1   
    11    8   16 1   
    12    9   10 2   
    13    9   19 1   
    14   11   12 1   
    15   11   17 1   
    16   11   18 1   
    17   12   13 1   
    18   12   14 1   
    19   19   20 1   
    20   19   27 1   
    21   20   21 1   
    22   20   23 1   
    23   20   28 1   
    24   21   22 2   
    25   21   38 1   
    26   23   24 1   
    27   23   25 1   
    28   23   29 1   
    29   24   26 1   
    30   24   30 1   
    31   24   31 1   
    32   25   32 1   
    33   25   33 1   
    34   25   34 1   
    35   26   35 1   
    36   26   36 1   
    37   26   37 1   
    38   38   39 1   
    39   38   46 1   
    40   39   40 1   
    41   39   42 1   
    42   39   47 1   
    43   40   41 2   
    44   40   50 1   
    45   42   43 1   
    46   42   48 1   
    47   42   49 1   
    48   43   44 1   
    49   43   45 1   
    50   50   51 1   
    51   50   54 1   
    52   51   52 1   
    53   51   55 1   
    54   51   56 1   
    55   52   53 2   
    56   52   57 1   
    57   57   58 1   
    58   57   65 1   
    59   58   59 1   
    60   58   61 1   
    61   58   66 1   
    62   59   60 2   
    63   59   69 1   
    64   61   62 1   
    65   61   67 1   
    66   61   68 1   
    67   62   63 1   
    68   62   64 1   
    69   69   70 1   
    70   69   73 1   
    71   70   71 1   
    72   70   74 1   
    73   70   75 1   
    74   71   72 2   
    75   71   76 1   
    76   76   77 1   
    77   76   85 1   
    78   77   78 1   
    79   77   80 1   
    80   77   86 1   
    81   78   79 2   
    82   78   93 1   
    83   80   81 1   
    84   80   87 1   
    85   80   88 1   
    86   81   82 1   
    87   81   89 1   
    88   81   90 1   
    89   82   83 1   
    90   82   84 2   
    91   83   91 1   
    92   83   92 1   
    93   93   94 1   
    94   93  100 1   
    95   94   95 1   
    96   94   97 1   
    97   94  101 1   
    98   95   96 2   
    99   95  109 1   
   100   97   98 1   
   101   97   99 1   
   102   97  102 1   
   103   98  103 1   
   104   98  104 1   
   105   98  105 1   
   106   99  106 1   
   107   99  107 1   
   108   99  108 1   
   109  109  110 1   
   110  109  117 1   
   111  110  111 1   
   112  110  113 1   
   113  110  118 1   
   114  111  112 2   
   115  111  123 1   
   116  113  114 1   
   117  113  119 1   
   118  113  120 1   
   119  114  115 1   
   120  114  116 2   
   121  115  121 1   
   122  115  122 1   
   123  123  124 1   
   124  123  135 1   
   125  124  125 1   
   126  124  127 1   
   127  124  136 1   
   128  125  126 2   
   129  125  144 1   
   130  127  128 1   
   131  127  137 1   
   132  127  138 1   
   133  128  129 ar  
   134  128  130 ar  
   135  129  131 ar  
   136  129  139 1   
   137  130  132 ar  
   138  130  140 1   
   139  131  133 ar  
   140  131  141 1   
   141  132  133 ar  
   142  132  142 1   
   143  133  134 1   
   144  134  143 1   
   145  144  145 1   
   146  144  153 1   
   147  145  146 1   
   148  145  148 1   
   149  145  154 1   
   150  146  147 2   
   151  146  159 1   
   152  148  149 1   
   153  148  155 1   
   154  148  156 1   
   155  149  150 1   
   156  149  157 1   
   157  149  158 1   
   158  150  151 1   
   159  150  152 1   
   160  159  160 1   
   161  159  168 1   
   162  160  161 1   
   163  160  163 1   
   164  160  169 1   
   165  161  162 2   
   166  161  174 1   
   167  163  164 1   
   168  163  170 1   
   169  163  171 1   
   170  164  165 1   
   171  164  172 1   
   172  164  173 1   
   173  165  166 1   
   174  165  167 1   
   175  174  175 1   
   176  174  179 1   
   177  175  176 1   
   178  175  177 1   
   179  175  178 1   
   180  181  182 1   
   181  181  183 1   
@<TRIPOS>SUBSTRUCTURE
     1 MOL         1 TEMP              0 ****  ****    0 ROOT
