@<TRIPOS>MOLECULE
MOL
  172   171     1     0     0
SMALL
resp


@<TRIPOS>ATOM
      1 C1          0.4840   -2.4250    6.2450 c3        1 MOL     -0.525951
      2 C2          0.7730   -2.6540    4.7120 c         1 MOL      0.682685
      3 O1         -0.0920   -2.8930    3.8670 o         1 MOL     -0.536267
      4 H1          1.4260   -2.4190    6.7950 hc        1 MOL      0.133303
      5 H2         -0.0220   -1.4700    6.3820 hc        1 MOL      0.133303
      6 H3         -0.1480   -3.2300    6.6210 hc        1 MOL      0.133303
      7 N1          2.0550   -2.4590    4.3470 n         1 MOL     -0.496748
      8 C3          2.5120   -2.3670    2.9560 c3        1 MOL     -0.022056
      9 C4          2.7670   -3.7570    2.2950 c         1 MOL      0.632678
     10 O2          3.1100   -4.7030    3.0020 o         1 MOL     -0.603108
     11 C5          3.8040   -1.4900    2.9450 c3        1 MOL     -0.363794
     12 C6          4.2830   -1.0420    1.5580 c         1 MOL      0.832304
     13 O3          5.4700   -0.6780    1.5380 o         1 MOL     -0.673168
     14 O4          3.5280   -1.0140    0.5470 o         1 MOL     -0.673168
     15 H4          2.7470   -2.1880    5.0190 hn        1 MOL      0.292524
     16 H5          1.7070   -1.9220    2.3770 h1        1 MOL      0.162564
     17 H6          4.5950   -2.0080    3.4930 hc        1 MOL      0.103517
     18 H7          3.5530   -0.5520    3.4390 hc        1 MOL      0.103517
     19 N2          2.5290   -3.9220    1.0000 n         1 MOL     -0.528338
     20 C7          2.8780   -5.1600    0.2900 c3        1 MOL      0.321247
     21 C8          3.8670   -4.8610   -0.8700 c         1 MOL      0.174888
     22 O5          4.4310   -5.8310   -1.4490 o         1 MOL     -0.537044
     23 C9          1.6340   -5.7160   -0.4600 c3        1 MOL     -0.255119
     24 H8          2.2080   -3.1090    0.4920 hn        1 MOL      0.399537
     25 H9          3.2790   -5.9380    0.9350 h1        1 MOL      0.039031
     26 H10         1.1000   -6.2550    0.3310 hc        1 MOL      0.069020
     27 H11         0.9850   -4.9730   -0.9090 hc        1 MOL      0.069020
     28 H12         1.8650   -6.4480   -1.2270 hc        1 MOL      0.069020
     29 N3          4.1800   -3.5790   -1.1260 n         1 MOL      0.162200
     30 C10         5.2090   -3.1520   -2.1680 c3        1 MOL     -0.069931
     31 C11         6.5980   -2.9690   -1.6230 c         1 MOL      0.491761
     32 O6          7.4910   -3.2810   -2.3620 o         1 MOL     -0.516848
     33 C12         4.6960   -1.8230   -2.7120 c3        1 MOL     -0.013507
     34 C13         3.4280   -1.8550   -3.5640 c         1 MOL      0.542343
     35 O7          2.4040   -1.2140   -3.2220 o         1 MOL     -0.657134
     36 O8          3.4830   -2.5750   -4.6300 o         1 MOL     -0.657134
     37 H13         3.8050   -2.8760   -0.4970 hn        1 MOL     -0.174833
     38 H14         5.2440   -3.8550   -2.9950 h1        1 MOL      0.101098
     39 H15         5.5220   -1.4450   -3.3040 hc        1 MOL      0.027230
     40 H16         4.5210   -1.0420   -1.9760 hc        1 MOL      0.027230
     41 N4          6.8410   -2.5880   -0.3760 n         1 MOL     -0.359019
     42 C14         8.0940   -1.9220    0.0870 c3        1 MOL     -0.066326
     43 C15         8.1870   -0.4650   -0.4020 c         1 MOL      0.588638
     44 O9          9.2400   -0.1080   -0.8780 o         1 MOL     -0.595095
     45 H17         6.1070   -2.5060    0.3210 hn        1 MOL      0.241693
     46 H18         9.0070   -2.4420   -0.2060 h1        1 MOL      0.063872
     47 H19         7.9060   -1.9510    1.1550 h1        1 MOL      0.063872
     48 N5          7.1520    0.3340   -0.3180 n         1 MOL     -0.389303
     49 C16         7.0890    1.7200   -0.8320 c3        1 MOL      0.090868
     50 C17         6.5320    2.6900    0.1940 c         1 MOL      0.319692
     51 O10         6.7620    3.9190    0.0360 o         1 MOL     -0.509629
     52 C18         6.3130    1.6460   -2.1320 c3        1 MOL     -0.056772
     53 C19         4.8640    1.9200   -1.8910 c         1 MOL      0.432828
     54 N6          4.4210    2.9420   -2.5580 n         1 MOL     -0.605148
     55 O11         4.1580    1.2810   -1.1900 o         1 MOL     -0.646318
     56 H20         6.3410   -0.0170    0.1590 hn        1 MOL      0.201358
     57 H21         8.0790    2.1070   -1.0690 h1        1 MOL      0.082863
     58 H22         6.4240    0.6900   -2.6550 hc        1 MOL      0.060179
     59 H23         6.7550    2.3220   -2.8590 hc        1 MOL      0.060179
     60 H24         4.9010    3.3980   -3.3220 hn        1 MOL      0.325085
     61 H25         3.4190    3.0590   -2.5480 hn        1 MOL      0.325085
     62 N7          5.8030    2.1760    1.2010 n         1 MOL     -0.054594
     63 C20         5.3110    3.0120    2.3170 c3        1 MOL     -0.222192
     64 C21         4.2000    4.0240    2.0380 c         1 MOL      0.597367
     65 O12         4.0610    5.0600    2.7550 o         1 MOL     -0.555067
     66 H26         5.7280    1.1720    1.2770 hn        1 MOL      0.149621
     67 H27         6.0850    3.6500    2.7430 h1        1 MOL      0.108959
     68 H28         5.1470    2.3620    3.1860 h1        1 MOL      0.108959
     69 N8          3.3780    3.7760    0.9970 n         1 MOL     -0.603402
     70 C22         2.3100    4.6150    0.4860 c3        1 MOL      0.338117
     71 C23         1.1710    3.6230    0.1760 c         1 MOL      0.558390
     72 O13         1.2840    2.6560   -0.5460 o         1 MOL     -0.619240
     73 C24         2.6820    5.4960   -0.7810 c3        1 MOL      0.266960
     74 C25         1.5860    6.4950   -1.3360 c3        1 MOL     -0.435872
     75 O14         3.8530    6.2240   -0.5880 oh        1 MOL     -0.558332
     76 H29         3.8070    3.1110    0.3760 hn        1 MOL      0.308820
     77 H30         1.9470    5.2780    1.2640 h1        1 MOL      0.018067
     78 H31         2.8720    4.7890   -1.5890 h1        1 MOL     -0.007206
     79 H32         4.0740    6.6090   -1.4440 ho        1 MOL      0.376309
     80 H33         2.0870    6.8740   -2.2270 hc        1 MOL      0.103035
     81 H34         0.6380    5.9820   -1.5410 hc        1 MOL      0.103035
     82 H35         1.3510    7.3410   -0.7000 hc        1 MOL      0.103035
     83 N9         -0.0030    3.9060    0.7970 n         1 MOL     -0.472481
     84 C26        -1.1600    3.0130    0.9230 c3        1 MOL     -0.239651
     85 C27        -1.8930    2.9620   -0.3970 c         1 MOL      0.781514
     86 O15        -2.5280    3.8930   -0.9000 o         1 MOL     -0.642393
     87 C28        -2.0270    3.5400    2.1640 c3        1 MOL      0.067118
     88 C29        -1.3890    3.0670    3.4700 c3        1 MOL      0.178168
     89 C30        -3.6160    3.2090    2.1230 c3        1 MOL     -0.267135
     90 C31        -2.1340    3.5860    4.7060 c3        1 MOL     -0.120555
     91 H36        -0.1580    4.7470    1.3310 hn        1 MOL      0.271284
     92 H37        -0.8900    1.9770    1.1680 h1        1 MOL      0.222795
     93 H38        -1.9050    4.6280    2.1500 hc        1 MOL      0.022039
     94 H39        -0.3690    3.4560    3.4860 hc        1 MOL     -0.040549
     95 H40        -1.3420    1.9750    3.4250 hc        1 MOL     -0.040549
     96 H41        -3.9530    3.4840    1.1270 hc        1 MOL      0.055939
     97 H42        -3.6960    2.1220    2.2430 hc        1 MOL      0.055939
     98 H43        -4.1290    3.7620    2.9100 hc        1 MOL      0.055939
     99 H44        -2.3880    4.6330    4.5250 hc        1 MOL      0.018476
    100 H45        -3.0290    2.9970    4.8800 hc        1 MOL      0.018476
    101 H46        -1.5260    3.5190    5.6190 hc        1 MOL      0.018476
    102 N10        -2.0550    1.7920   -0.8910 n         1 MOL     -0.434461
    103 C32        -3.0710    1.4330   -1.8940 c3        1 MOL      0.179408
    104 C33        -4.4080    1.1630   -1.1300 c         1 MOL      0.313175
    105 O16        -4.3480    0.7630    0.0620 o         1 MOL     -0.180646
    106 C34        -2.7060    0.2250   -2.7430 c3        1 MOL     -0.193680
    107 C35        -1.2260    0.0990   -3.2320 c         1 MOL      0.638363
    108 O17        -0.4630   -0.5140   -2.3390 o         1 MOL     -0.609364
    109 O18        -0.8650    0.3190   -4.3840 o         1 MOL     -0.609364
    110 H47        -1.7880    0.9980   -0.3320 hn        1 MOL      0.064223
    111 H48        -3.2020    2.2180   -2.6390 h1        1 MOL      0.044406
    112 H49        -3.3470    0.2040   -3.6240 hc        1 MOL      0.040662
    113 H50        -3.0460   -0.6460   -2.1860 hc        1 MOL      0.040662
    114 N11        -5.5500    1.2020   -1.8240 n         1 MOL     -0.610326
    115 C36        -6.8850    0.8530   -1.2800 c3        1 MOL      0.413318
    116 C37        -6.9770   -0.5220   -0.5950 c         1 MOL      0.380154
    117 O19        -7.4830   -0.3980    0.5140 o         1 MOL     -0.482385
    118 C38        -7.9810    1.0990   -2.3660 c3        1 MOL     -0.250476
    119 C39        -9.3640    0.7380   -1.9350 ca        1 MOL      0.031819
    120 C40       -10.0600    1.4510   -0.9350 ca        1 MOL     -0.059789
    121 C41       -10.0970   -0.2760   -2.6110 ca        1 MOL     -0.059789
    122 C42       -11.3430    1.1680   -0.5690 ca        1 MOL     -0.221244
    123 C43       -11.4090   -0.6010   -2.2030 ca        1 MOL     -0.221244
    124 C44       -12.0230    0.0290   -1.0920 ca        1 MOL     -0.008796
    125 H51        -5.5080    1.5950   -2.7500 hn        1 MOL      0.323303
    126 H52        -7.1100    1.5840   -0.5010 h1        1 MOL      0.022563
    127 H53        -7.6250    0.4170   -3.1350 hc        1 MOL      0.075536
    128 H54        -7.9790    2.1330   -2.7290 hc        1 MOL      0.075536
    129 H55        -9.5490    2.2800   -0.4580 ha        1 MOL      0.096180
    130 H56        -9.7640   -0.7760   -3.5030 ha        1 MOL      0.096180
    131 H57       -11.7670    1.7990    0.1970 ha        1 MOL      0.129938
    132 H58       -11.8970   -1.4320   -2.6980 ha        1 MOL      0.129938
    133 H59       -13.0060   -0.2600   -0.7470 ha        1 MOL      0.088298
    134 N12        -6.5790   -1.6840   -1.1810 n         1 MOL     -0.215343
    135 C45        -6.4010   -2.8640   -0.3660 c3        1 MOL      0.092808
    136 C46        -5.5040   -2.7290    0.8800 c         1 MOL      0.206017
    137 O20        -5.7410   -3.4210    1.9000 o         1 MOL     -0.512542
    138 C47        -5.7870   -3.8860   -1.3690 c3        1 MOL     -0.122852
    139 C48        -5.0740   -2.9770   -2.3740 c3        1 MOL      0.031071
    140 C49        -6.0960   -1.8280   -2.5340 c3        1 MOL     -0.041827
    141 H60        -7.3690   -3.1900   -0.0000 h1        1 MOL      0.067650
    142 H61        -5.1240   -4.6820   -1.0500 hc        1 MOL      0.057560
    143 H62        -6.6390   -4.3880   -1.8080 hc        1 MOL      0.057560
    144 H63        -4.0950   -2.6070   -2.0780 hc        1 MOL      0.041117
    145 H64        -4.9270   -3.4640   -3.3390 hc        1 MOL      0.041117
    146 H65        -5.5360   -0.9710   -2.9000 h1        1 MOL      0.027582
    147 H66        -6.8780   -2.0700   -3.2540 h1        1 MOL      0.027582
    148 N13        -4.5640   -1.8590    0.9140 n         1 MOL      0.017722
    149 C50        -3.7930   -1.5370    2.1830 c3        1 MOL     -0.242561
    150 C51        -4.6850   -0.6730    3.1260 c         1 MOL      0.461048
    151 O21        -4.6460   -0.8910    4.3430 o         1 MOL     -0.572724
    152 C52        -2.4370   -1.0240    1.7930 c3        1 MOL      0.066134
    153 C53        -1.5330   -1.9490    1.0210 c3        1 MOL      0.076248
    154 C54        -0.2040   -1.3400    0.5420 c         1 MOL      0.700321
    155 O22         0.1920   -0.1930    0.8810 o         1 MOL     -0.813834
    156 O23         0.6240   -2.0180   -0.0860 o         1 MOL     -0.813834
    157 H67        -4.3710   -1.2930    0.0940 hn        1 MOL      0.123475
    158 H68        -3.6310   -2.4260    2.7940 h1        1 MOL      0.154034
    159 H69        -1.8960   -0.7930    2.7090 hc        1 MOL      0.033869
    160 H70        -2.4980   -0.0000    1.4290 hc        1 MOL      0.033869
    161 H71        -2.0020   -2.3150    0.1050 hc        1 MOL     -0.019763
    162 H72        -1.3780   -2.7520    1.7440 hc        1 MOL     -0.019763
    163 N14        -5.4600    0.2370    2.6190 n         1 MOL      0.049238
    164 C55        -6.4430    0.9600    3.4690 c3        1 MOL     -0.195306
    165 H73        -7.3670    1.1070    2.9100 h1        1 MOL      0.070489
    166 H74        -6.6510    0.3740    4.3640 h1        1 MOL      0.070489
    167 H75        -6.0340    1.9290    3.7550 h1        1 MOL      0.070489
    168 H76        -5.4890    0.4510    1.6340 hn        1 MOL      0.007741
    169 Ca1         1.8090    0.0920   -1.1160 Ca        1 MOL      1.767379
    170 O24         1.2580    1.8300   -3.3100 oh        1 MOL     -0.859389
    171 H77         1.3120    2.7640   -3.5330 ho        1 MOL      0.389817
    172 H78         0.5220    1.5040   -3.8310 ho        1 MOL      0.389817
@<TRIPOS>BOND
     1    1    2 1   
     2    1    4 1   
     3    1    5 1   
     4    1    6 1   
     5    2    3 2   
     6    2    7 1   
     7    7    8 1   
     8    7   15 1   
     9    8    9 1   
    10    8   11 1   
    11    8   16 1   
    12    9   10 2   
    13    9   19 1   
    14   11   12 1   
    15   11   17 1   
    16   11   18 1   
    17   12   13 1   
    18   12   14 1   
    19   19   20 1   
    20   19   24 1   
    21   20   21 1   
    22   20   23 1   
    23   20   25 1   
    24   21   22 2   
    25   21   29 1   
    26   23   26 1   
    27   23   27 1   
    28   23   28 1   
    29   29   30 1   
    30   29   37 1   
    31   30   31 1   
    32   30   33 1   
    33   30   38 1   
    34   31   32 2   
    35   31   41 1   
    36   33   34 1   
    37   33   39 1   
    38   33   40 1   
    39   34   35 1   
    40   34   36 1   
    41   41   42 1   
    42   41   45 1   
    43   42   43 1   
    44   42   46 1   
    45   42   47 1   
    46   43   44 2   
    47   43   48 1   
    48   48   49 1   
    49   48   56 1   
    50   49   50 1   
    51   49   52 1   
    52   49   57 1   
    53   50   51 2   
    54   50   62 1   
    55   52   53 1   
    56   52   58 1   
    57   52   59 1   
    58   53   54 1   
    59   53   55 2   
    60   54   60 1   
    61   54   61 1   
    62   62   63 1   
    63   62   66 1   
    64   63   64 1   
    65   63   67 1   
    66   63   68 1   
    67   64   65 2   
    68   64   69 1   
    69   69   70 1   
    70   69   76 1   
    71   70   71 1   
    72   70   73 1   
    73   70   77 1   
    74   71   72 2   
    75   71   83 1   
    76   73   74 1   
    77   73   75 1   
    78   73   78 1   
    79   74   80 1   
    80   74   81 1   
    81   74   82 1   
    82   75   79 1   
    83   83   84 1   
    84   83   91 1   
    85   84   85 1   
    86   84   87 1   
    87   84   92 1   
    88   85   86 2   
    89   85  102 1   
    90   87   88 1   
    91   87   89 1   
    92   87   93 1   
    93   88   90 1   
    94   88   94 1   
    95   88   95 1   
    96   89   96 1   
    97   89   97 1   
    98   89   98 1   
    99   90   99 1   
   100   90  100 1   
   101   90  101 1   
   102  102  103 1   
   103  102  110 1   
   104  103  104 1   
   105  103  106 1   
   106  103  111 1   
   107  104  105 2   
   108  104  114 1   
   109  106  107 1   
   110  106  112 1   
   111  106  113 1   
   112  107  108 1   
   113  107  109 1   
   114  114  115 1   
   115  114  125 1   
   116  115  116 1   
   117  115  118 1   
   118  115  126 1   
   119  116  117 2   
   120  116  134 1   
   121  118  119 1   
   122  118  127 1   
   123  118  128 1   
   124  119  120 ar  
   125  119  121 ar  
   126  120  122 ar  
   127  120  129 1   
   128  121  123 ar  
   129  121  130 1   
   130  122  124 ar  
   131  122  131 1   
   132  123  124 ar  
   133  123  132 1   
   134  124  133 1   
   135  134  135 1   
   136  134  140 1   
   137  135  136 1   
   138  135  138 1   
   139  135  141 1   
   140  136  137 2   
   141  136  148 1   
   142  138  139 1   
   143  138  142 1   
   144  138  143 1   
   145  139  140 1   
   146  139  144 1   
   147  139  145 1   
   148  140  146 1   
   149  140  147 1   
   150  148  149 1   
   151  148  157 1   
   152  149  150 1   
   153  149  152 1   
   154  149  158 1   
   155  150  151 2   
   156  150  163 1   
   157  152  153 1   
   158  152  159 1   
   159  152  160 1   
   160  153  154 1   
   161  153  161 1   
   162  153  162 1   
   163  154  155 1   
   164  154  156 1   
   165  163  164 1   
   166  163  168 1   
   167  164  165 1   
   168  164  166 1   
   169  164  167 1   
   170  170  171 1   
   171  170  172 1   
@<TRIPOS>SUBSTRUCTURE
     1 MOL         1 TEMP              0 ****  ****    0 ROOT
