@<TRIPOS>MOLECULE
MOL
  186   183     1     0     0
SMALL
resp


@<TRIPOS>ATOM
      1 C1          0.4670   -1.0730    6.3590 c3        1 MOL     -0.250443
      2 C2          0.9750   -1.2680    4.8880 c         1 MOL      0.773718
      3 O1          0.1330   -1.6600    4.0450 o         1 MOL     -0.601278
      4 H1          0.5260   -2.0220    6.8910 hc        1 MOL      0.053941
      5 H2          1.0900   -0.3340    6.8640 hc        1 MOL      0.053941
      6 H3         -0.5670   -0.7280    6.3450 hc        1 MOL      0.053941
      7 N1          2.2070   -0.8880    4.5440 n         1 MOL     -0.712485
      8 C3          2.8640   -1.2880    3.2950 c3        1 MOL      0.282679
      9 C4          3.1290   -2.8040    3.1420 c         1 MOL      0.431037
     10 O2          3.4150   -3.5130    4.0980 o         1 MOL     -0.580642
     11 C5          4.1300   -0.4350    3.1300 c3        1 MOL     -0.031895
     12 C6          4.6950   -0.5950    1.6790 c         1 MOL      0.579113
     13 O3          3.8160   -0.8280    0.8400 o         1 MOL     -0.631932
     14 O4          5.8990   -0.7220    1.5070 o         1 MOL     -0.631932
     15 H4          2.8360   -0.4740    5.2130 hn        1 MOL      0.323866
     16 H5          2.1260   -0.9470    2.5680 h1        1 MOL      0.018963
     17 H6          4.8610   -0.8360    3.8290 hc        1 MOL     -0.010424
     18 H7          3.9960    0.6100    3.4180 hc        1 MOL     -0.010424
     19 N2          2.8240   -3.4230    1.9660 n         1 MOL      0.007206
     20 C7          2.9030   -4.8660    1.6550 c3        1 MOL     -0.053884
     21 C8          3.7540   -5.2900    0.5530 c         1 MOL      0.381882
     22 O5          4.0140   -6.5070    0.3870 o         1 MOL     -0.577891
     23 C9          1.4940   -5.5040    1.5660 c3        1 MOL      0.173679
     24 C10         0.6600   -5.0200    0.4030 c3        1 MOL      0.095982
     25 C11         0.7100   -5.2030    2.8150 c3        1 MOL     -0.212527
     26 C12        -0.6330   -5.8450    0.1700 c3        1 MOL     -0.466953
     27 H8          2.4130   -2.7390    1.3520 hn        1 MOL      0.058827
     28 H9          3.3310   -5.3350    2.5430 h1        1 MOL      0.068773
     29 H10         1.5640   -6.5880    1.4700 hc        1 MOL     -0.019298
     30 H11         1.2050   -5.1430   -0.5310 hc        1 MOL      0.055543
     31 H12         0.4360   -3.9590    0.4650 hc        1 MOL      0.055543
     32 H13        -0.1660   -5.8510    2.8600 hc        1 MOL      0.038401
     33 H14         1.2890   -5.4960    3.6980 hc        1 MOL      0.038401
     34 H15         0.3370   -4.1880    2.8970 hc        1 MOL      0.038401
     35 H16        -1.0560   -5.6080   -0.8040 hc        1 MOL      0.108553
     36 H17        -0.3520   -6.8710    0.3900 hc        1 MOL      0.108553
     37 H18        -1.4650   -5.5660    0.8190 hc        1 MOL      0.108553
     38 N3          4.0620   -4.3220   -0.3150 n         1 MOL     -0.131370
     39 C13         4.7330   -4.4950   -1.6300 c3        1 MOL      0.046860
     40 C14         5.9190   -3.5910   -1.8970 c         1 MOL      0.566847
     41 O6          6.5100   -3.6510   -3.0120 o         1 MOL     -0.558776
     42 C15         3.6880   -4.4160   -2.7650 c3        1 MOL     -0.147653
     43 C16         2.9770   -3.0660   -2.7370 c         1 MOL      0.765993
     44 O7          2.8120   -2.3540   -1.6870 o         1 MOL     -0.692719
     45 O8          2.4820   -2.6640   -3.8090 o         1 MOL     -0.692719
     46 H19         3.8100   -3.3880   -0.0620 hn        1 MOL     -0.134726
     47 H20         5.1870   -5.4910   -1.6930 h1        1 MOL      0.058502
     48 H21         2.8730   -5.1390   -2.7230 hc        1 MOL      0.038785
     49 H22         4.2330   -4.5670   -3.6960 hc        1 MOL      0.038785
     50 N4          6.3750   -2.7500   -0.9460 n         1 MOL     -0.519460
     51 C17         7.7830   -2.2750   -0.9740 c3        1 MOL     -0.080918
     52 C18         8.0870   -0.8150   -1.3330 c         1 MOL      0.503834
     53 O9          9.2320   -0.4730   -1.1630 o         1 MOL     -0.570332
     54 H23         5.8950   -2.6160   -0.0660 hn        1 MOL      0.362341
     55 H24         8.3050   -2.9390   -1.6620 h1        1 MOL      0.088788
     56 H25         8.3030   -2.3790   -0.0290 h1        1 MOL      0.088788
     57 N5          7.1180   -0.1380   -1.9200 n         1 MOL     -0.296632
     58 C19         7.2600    1.2850   -2.3180 c3        1 MOL      0.061811
     59 C20         7.5480    2.1810   -1.0940 c         1 MOL      0.426177
     60 O10         8.3350    3.1070   -1.2470 o         1 MOL     -0.572656
     61 C21         6.0480    1.7100   -3.1230 c3        1 MOL     -0.228914
     62 C22         4.7150    1.2470   -2.5610 c         1 MOL      0.726319
     63 O11         4.1520    0.2480   -3.0000 o         1 MOL     -0.714605
     64 O12         4.2450    1.7460   -1.5400 o         1 MOL     -0.714605
     65 H26         6.1980   -0.5540   -2.0000 hn        1 MOL      0.260235
     66 H27         8.1980    1.4370   -2.8720 h1        1 MOL      0.070213
     67 H28         6.2070    1.4340   -4.1650 hc        1 MOL      0.056476
     68 H29         6.0850    2.8040   -3.0720 hc        1 MOL      0.056476
     69 N6          7.0540    1.8870    0.0950 n         1 MOL     -0.055984
     70 C23         7.0460    2.6860    1.3130 c3        1 MOL     -0.178558
     71 C24         5.8510    3.6460    1.3430 c         1 MOL      0.545876
     72 O13         5.8810    4.6610    2.0900 o         1 MOL     -0.617835
     73 H30         6.5820    1.0010    0.2010 hn        1 MOL      0.124650
     74 H31         8.0200    3.1720    1.3390 h1        1 MOL      0.093000
     75 H32         6.9210    1.9810    2.1410 h1        1 MOL      0.093000
     76 N7          4.7090    3.3670    0.7220 n         1 MOL     -0.280496
     77 C25         3.4430    4.1340    0.7160 c3        1 MOL      0.285966
     78 C26         2.1780    3.2040    0.9000 c         1 MOL      0.386231
     79 O14         2.3120    1.9730    0.7950 o         1 MOL     -0.585684
     80 C27         3.3510    4.9670   -0.5590 c3        1 MOL      0.103696
     81 C28         4.1260    6.2110   -0.5520 c3        1 MOL     -0.370812
     82 C29         3.5720    7.4390   -1.3440 c         1 MOL      0.678231
     83 N8          3.6680    7.2430   -2.5990 n         1 MOL     -0.780746
     84 O15         3.0740    8.4260   -0.8200 o         1 MOL     -0.574580
     85 H33         4.6480    2.5800    0.0880 hn        1 MOL      0.117124
     86 H34         3.4220    4.8010    1.5750 h1        1 MOL      0.007342
     87 H35         2.2850    5.1940   -0.5690 hc        1 MOL      0.008637
     88 H36         3.6490    4.3820   -1.4200 hc        1 MOL      0.008637
     89 H37         5.0540    5.8620   -1.0050 hc        1 MOL      0.087705
     90 H38         4.3580    6.5250    0.4710 hc        1 MOL      0.087705
     91 H39         4.0350    6.3570   -2.9330 hn        1 MOL      0.356155
     92 H40         3.5620    8.0280   -3.2250 hn        1 MOL      0.356155
     93 N9          1.0000    3.7580    1.2040 n         1 MOL     -0.416198
     94 C30        -0.1950    3.0630    1.6080 c3        1 MOL      0.003797
     95 C31        -1.3160    3.5930    0.6430 c         1 MOL      0.464741
     96 O16        -1.5440    4.7650    0.6120 o         1 MOL     -0.564187
     97 C32        -0.5280    3.1750    3.0760 c3        1 MOL      0.143042
     98 C33        -1.6830    2.2720    3.4910 c3        1 MOL     -0.275247
     99 C34         0.7460    2.6410    3.8330 c3        1 MOL     -0.275247
    100 H41         0.9790    4.7480    1.3760 hn        1 MOL      0.283400
    101 H42        -0.0970    1.9860    1.4020 h1        1 MOL      0.152484
    102 H43        -0.7060    4.2040    3.3820 hc        1 MOL      0.006628
    103 H44        -2.5910    2.6660    3.0210 hc        1 MOL      0.066047
    104 H45        -1.5460    1.2330    3.1960 hc        1 MOL      0.066047
    105 H46        -1.8620    2.2890    4.5690 hc        1 MOL      0.066047
    106 H47         1.6050    3.2940    3.6960 hc        1 MOL      0.066047
    107 H48         0.6010    2.6570    4.9140 hc        1 MOL      0.066047
    108 H49         1.0030    1.6570    3.4500 hc        1 MOL      0.066047
    109 N10        -1.8890    2.6840   -0.1430 n         1 MOL     -0.243324
    110 C35        -2.9860    2.9070   -1.1070 c3        1 MOL     -0.003026
    111 C36        -4.2940    2.3260   -0.5060 c         1 MOL      0.516586
    112 O17        -4.2400    1.6140    0.4910 o         1 MOL     -0.388602
    113 C37        -2.5940    2.2700   -2.5140 c3        1 MOL     -0.221532
    114 C38        -3.2680    0.9250   -2.8590 c         1 MOL      0.477472
    115 N11        -2.7120   -0.1560   -2.4740 n         1 MOL     -0.461079
    116 O18        -4.3180    0.8480   -3.5390 o         1 MOL     -0.588407
    117 H50        -1.4180    1.7970   -0.1140 hn        1 MOL      0.188518
    118 H51        -3.0720    3.9800   -1.3050 h1        1 MOL      0.076075
    119 H52        -1.5200    2.1480   -2.5800 hc        1 MOL      0.097336
    120 H53        -2.7630    2.8950   -3.3920 hc        1 MOL      0.097336
    121 H54        -1.8220   -0.2210   -1.9960 hn        1 MOL      0.293034
    122 H55        -3.2420   -0.9580   -2.7910 hn        1 MOL      0.293034
    123 N12        -5.4510    2.5330   -1.1240 n         1 MOL     -0.670677
    124 C39        -6.7360    2.1080   -0.6470 c3        1 MOL      0.486423
    125 C40        -6.8580    0.5700   -0.4430 c         1 MOL      0.587154
    126 O19        -7.2880    0.2350    0.6740 o         1 MOL     -0.513606
    127 C41        -7.9890    2.7220   -1.3800 c3        1 MOL     -0.187514
    128 C42        -9.3660    2.3850   -0.8620 ca        1 MOL      0.070163
    129 C43        -9.5760    2.4820    0.5320 ca        1 MOL     -0.214527
    130 C44       -10.3590    1.8800   -1.7010 ca        1 MOL     -0.214527
    131 C45       -10.8200    2.2130    1.0990 ca        1 MOL     -0.235792
    132 C46       -11.6180    1.4760   -1.0890 ca        1 MOL     -0.235792
    133 C47       -11.8440    1.6860    0.2940 ca        1 MOL      0.346711
    134 O20       -13.0620    1.4260    0.7530 oh        1 MOL     -0.498420
    135 H56        -5.4690    3.1270   -1.9430 hn        1 MOL      0.287883
    136 H57        -6.6800    2.5780    0.3420 h1        1 MOL     -0.013862
    137 H58        -7.9050    2.4490   -2.4330 hc        1 MOL      0.051718
    138 H59        -7.9700    3.8150   -1.3390 hc        1 MOL      0.051718
    139 H60        -8.8060    2.8780    1.1770 ha        1 MOL      0.147063
    140 H61       -10.1270    1.7140   -2.7510 ha        1 MOL      0.147063
    141 H62       -11.0370    2.2880    2.1630 ha        1 MOL      0.136896
    142 H63       -12.3820    1.1660   -1.7850 ha        1 MOL      0.136896
    143 H64       -13.7200    1.1710    0.0930 ho        1 MOL      0.358304
    144 N13        -6.2860   -0.3040   -1.3180 n         1 MOL     -0.604552
    145 C48        -6.4090   -1.7190   -1.0340 c3        1 MOL      0.006577
    146 C49        -5.5290   -2.2240    0.1500 c         1 MOL      0.239340
    147 O21        -5.7850   -3.3160    0.7050 o         1 MOL     -0.470486
    148 C50        -6.0770   -2.5020   -2.3150 c3        1 MOL      0.195794
    149 C51        -6.5610   -3.9380   -2.2260 c3        1 MOL     -0.424541
    150 C52        -6.7210   -4.6250   -3.6130 c         1 MOL      0.801741
    151 O22        -5.8460   -5.4110   -3.9920 o         1 MOL     -0.766653
    152 O23        -7.7020   -4.4040   -4.3380 o         1 MOL     -0.766653
    153 H65        -5.7260   -0.0180   -2.0990 hn        1 MOL      0.284739
    154 H66        -7.4670   -1.9200   -0.8550 h1        1 MOL      0.115051
    155 H67        -4.9960   -2.3970   -2.3940 hc        1 MOL     -0.004055
    156 H68        -6.4780   -2.1180   -3.2490 hc        1 MOL     -0.004055
    157 H69        -7.5360   -3.8760   -1.7500 hc        1 MOL      0.076741
    158 H70        -5.8630   -4.5360   -1.6490 hc        1 MOL      0.076741
    159 N14        -4.4870   -1.4500    0.5590 n         1 MOL      0.078918
    160 C53        -3.7070   -1.7480    1.7550 c3        1 MOL     -0.286193
    161 C54        -4.3350   -1.1780    3.0120 c         1 MOL      0.508261
    162 O24        -4.1100   -1.6560    4.1550 o         1 MOL     -0.572506
    163 C55        -2.3280   -1.1460    1.5770 c3        1 MOL      0.207930
    164 C56        -1.6010   -1.7120    0.4090 c3        1 MOL     -0.282238
    165 C57        -0.3940   -0.9250    0.0650 c         1 MOL      0.684972
    166 O25         0.7410   -1.3640    0.3180 o         1 MOL     -0.680052
    167 O26        -0.3720    0.1540   -0.6060 o         1 MOL     -0.680052
    168 H71        -4.1710   -0.6620    0.0010 hn        1 MOL      0.098858
    169 H72        -3.7160   -2.8340    1.8590 h1        1 MOL      0.136585
    170 H73        -1.6870   -1.3310    2.4310 hc        1 MOL      0.040522
    171 H74        -2.3070   -0.0590    1.5530 hc        1 MOL      0.040522
    172 H75        -2.2260   -1.8030   -0.4930 hc        1 MOL      0.072305
    173 H76        -1.2550   -2.6730    0.7960 hc        1 MOL      0.072305
    174 N15        -5.1400   -0.1340    2.8020 n         1 MOL     -0.076133
    175 C58        -5.8670    0.6130    3.8700 c3        1 MOL     -0.372376
    176 H77        -5.9360   -0.0060    4.7640 h1        1 MOL      0.126325
    177 H78        -5.3280    1.5300    4.1040 h1        1 MOL      0.126325
    178 H79        -6.8710    0.8610    3.5220 h1        1 MOL      0.126325
    179 H80        -5.1800    0.2410    1.8620 hn        1 MOL      0.029740
    180 Ca1         2.3590    0.0010   -1.0090 Ca        1 MOL      1.739161
    181 O27         0.7750   -0.6770   -3.4740 oh        1 MOL     -0.842086
    182 H81         0.3730   -0.4770   -4.3240 ho        1 MOL      0.384674
    183 H82         1.5950   -1.1080   -3.6980 ho        1 MOL      0.384674
    184 O28         1.2820    2.2540   -2.1010 oh        1 MOL     -0.842086
    185 H83         1.3940    3.1120   -2.5240 ho        1 MOL      0.384674
    186 H84         0.4340    1.9420   -2.4100 ho        1 MOL      0.384674
@<TRIPOS>BOND
     1    1    2 1   
     2    1    4 1   
     3    1    5 1   
     4    1    6 1   
     5    2    3 2   
     6    2    7 1   
     7    7    8 1   
     8    7   15 1   
     9    8    9 1   
    10    8   11 1   
    11    8   16 1   
    12    9   10 2   
    13    9   19 1   
    14   11   12 1   
    15   11   17 1   
    16   11   18 1   
    17   12   13 1   
    18   12   14 1   
    19   19   20 1   
    20   19   27 1   
    21   20   21 1   
    22   20   23 1   
    23   20   28 1   
    24   21   22 2   
    25   21   38 1   
    26   23   24 1   
    27   23   25 1   
    28   23   29 1   
    29   24   26 1   
    30   24   30 1   
    31   24   31 1   
    32   25   32 1   
    33   25   33 1   
    34   25   34 1   
    35   26   35 1   
    36   26   36 1   
    37   26   37 1   
    38   38   39 1   
    39   38   46 1   
    40   39   40 1   
    41   39   42 1   
    42   39   47 1   
    43   40   41 2   
    44   40   50 1   
    45   42   43 1   
    46   42   48 1   
    47   42   49 1   
    48   43   44 1   
    49   43   45 1   
    50   50   51 1   
    51   50   54 1   
    52   51   52 1   
    53   51   55 1   
    54   51   56 1   
    55   52   53 2   
    56   52   57 1   
    57   57   58 1   
    58   57   65 1   
    59   58   59 1   
    60   58   61 1   
    61   58   66 1   
    62   59   60 2   
    63   59   69 1   
    64   61   62 1   
    65   61   67 1   
    66   61   68 1   
    67   62   63 1   
    68   62   64 1   
    69   69   70 1   
    70   69   73 1   
    71   70   71 1   
    72   70   74 1   
    73   70   75 1   
    74   71   72 2   
    75   71   76 1   
    76   76   77 1   
    77   76   85 1   
    78   77   78 1   
    79   77   80 1   
    80   77   86 1   
    81   78   79 2   
    82   78   93 1   
    83   80   81 1   
    84   80   87 1   
    85   80   88 1   
    86   81   82 1   
    87   81   89 1   
    88   81   90 1   
    89   82   83 1   
    90   82   84 2   
    91   83   91 1   
    92   83   92 1   
    93   93   94 1   
    94   93  100 1   
    95   94   95 1   
    96   94   97 1   
    97   94  101 1   
    98   95   96 2   
    99   95  109 1   
   100   97   98 1   
   101   97   99 1   
   102   97  102 1   
   103   98  103 1   
   104   98  104 1   
   105   98  105 1   
   106   99  106 1   
   107   99  107 1   
   108   99  108 1   
   109  109  110 1   
   110  109  117 1   
   111  110  111 1   
   112  110  113 1   
   113  110  118 1   
   114  111  112 2   
   115  111  123 1   
   116  113  114 1   
   117  113  119 1   
   118  113  120 1   
   119  114  115 1   
   120  114  116 2   
   121  115  121 1   
   122  115  122 1   
   123  123  124 1   
   124  123  135 1   
   125  124  125 1   
   126  124  127 1   
   127  124  136 1   
   128  125  126 2   
   129  125  144 1   
   130  127  128 1   
   131  127  137 1   
   132  127  138 1   
   133  128  129 ar  
   134  128  130 ar  
   135  129  131 ar  
   136  129  139 1   
   137  130  132 ar  
   138  130  140 1   
   139  131  133 ar  
   140  131  141 1   
   141  132  133 ar  
   142  132  142 1   
   143  133  134 1   
   144  134  143 1   
   145  144  145 1   
   146  144  153 1   
   147  145  146 1   
   148  145  148 1   
   149  145  154 1   
   150  146  147 2   
   151  146  159 1   
   152  148  149 1   
   153  148  155 1   
   154  148  156 1   
   155  149  150 1   
   156  149  157 1   
   157  149  158 1   
   158  150  151 1   
   159  150  152 1   
   160  159  160 1   
   161  159  168 1   
   162  160  161 1   
   163  160  163 1   
   164  160  169 1   
   165  161  162 2   
   166  161  174 1   
   167  163  164 1   
   168  163  170 1   
   169  163  171 1   
   170  164  165 1   
   171  164  172 1   
   172  164  173 1   
   173  165  166 1   
   174  165  167 1   
   175  174  175 1   
   176  174  179 1   
   177  175  176 1   
   178  175  177 1   
   179  175  178 1   
   180  181  182 1   
   181  181  183 1   
   182  184  185 1   
   183  184  186 1   
@<TRIPOS>SUBSTRUCTURE
     1 MOL         1 TEMP              0 ****  ****    0 ROOT
