@<TRIPOS>MOLECULE
MOL
  189   185     1     0     0
SMALL
resp


@<TRIPOS>ATOM
      1 C1          0.0820   -4.4010    5.8830 c3        1 MOL     -0.368689
      2 C2          0.7860   -3.8580    4.6440 c         1 MOL      0.734872
      3 O1          1.1020   -2.6590    4.6310 o         1 MOL     -0.618965
      4 H1         -0.2490   -5.4220    5.6940 hc        1 MOL      0.092742
      5 H2          0.7730   -4.3940    6.7270 hc        1 MOL      0.092742
      6 H3         -0.7810   -3.7770    6.1150 hc        1 MOL      0.092742
      7 N1          1.0940   -4.7120    3.6750 n         1 MOL     -0.618901
      8 C3          1.6430   -4.2670    2.3880 c3        1 MOL      0.414049
      9 C4          1.1850   -5.1370    1.1330 c         1 MOL      0.491037
     10 O2          0.8520   -6.3040    1.2940 o         1 MOL     -0.588221
     11 C5          3.1900   -4.2080    2.5400 c3        1 MOL     -0.290946
     12 C6          3.9190   -3.7080    1.2940 c         1 MOL      0.550024
     13 O3          4.6090   -4.5350    0.7390 o         1 MOL     -0.585153
     14 O4          3.6930   -2.5540    0.8270 o         1 MOL     -0.585153
     15 H4          0.7520   -5.6660    3.7410 hn        1 MOL      0.307769
     16 H5          1.2780   -3.2560    2.2380 h1        1 MOL     -0.143003
     17 H6          3.5190   -5.1930    2.8520 hc        1 MOL      0.064055
     18 H7          3.3930   -3.5160    3.3560 hc        1 MOL      0.064055
     19 N2          1.2340   -4.5480   -0.0760 n         1 MOL     -0.101129
     20 C7          1.0710   -5.3780   -1.3020 c3        1 MOL     -0.077817
     21 C8          2.2380   -5.3110   -2.3530 c         1 MOL      0.540440
     22 O5          2.6340   -6.2160   -3.0060 o         1 MOL     -0.591521
     23 C9         -0.3110   -5.0000   -1.9620 c3        1 MOL      0.109421
     24 C10        -1.5330   -5.2960   -1.1310 c3        1 MOL      0.066323
     25 C11        -0.4760   -5.6660   -3.3190 c3        1 MOL     -0.436360
     26 C12        -2.8070   -4.5220   -1.4870 c3        1 MOL     -0.202699
     27 H8          1.4220   -3.5580   -0.1090 hn        1 MOL     -0.003548
     28 H9          0.9910   -6.4280   -1.0330 h1        1 MOL      0.078869
     29 H10        -0.3290   -3.9160   -2.0810 hc        1 MOL      0.035052
     30 H11        -1.2510   -4.9870   -0.1290 hc        1 MOL     -0.014966
     31 H12        -1.7160   -6.3750   -1.1510 hc        1 MOL     -0.014966
     32 H13        -1.4720   -5.8660   -3.7140 hc        1 MOL      0.100578
     33 H14         0.2020   -5.2350   -4.0550 hc        1 MOL      0.100578
     34 H15        -0.0830   -6.6670   -3.1680 hc        1 MOL      0.100578
     35 H16        -3.0550   -4.6250   -2.5480 hc        1 MOL      0.059400
     36 H17        -3.6930   -4.8530   -0.9340 hc        1 MOL      0.059400
     37 H18        -2.5540   -3.4780   -1.2960 hc        1 MOL      0.059400
     38 N3          2.7420   -4.0920   -2.4870 n         1 MOL     -0.097862
     39 C13         3.4930   -3.5250   -3.6090 c3        1 MOL      0.016580
     40 C14         4.8580   -2.9670   -3.1410 c         1 MOL      0.370490
     41 O6          5.6910   -2.5350   -3.9590 o         1 MOL     -0.562878
     42 C15         2.6530   -2.3940   -4.1460 c3        1 MOL     -0.284602
     43 C16         2.2540   -1.3840   -3.0310 c         1 MOL      0.826636
     44 O7          2.7360   -1.4320   -1.9240 o         1 MOL     -0.726153
     45 O8          1.4670   -0.5030   -3.3320 o         1 MOL     -0.726153
     46 H19         2.2680   -3.4160   -1.9030 hn        1 MOL      0.126765
     47 H20         3.6850   -4.3210   -4.3240 h1        1 MOL      0.093599
     48 H21         1.7800   -2.8060   -4.6610 hc        1 MOL      0.070044
     49 H22         3.1820   -1.7450   -4.8570 hc        1 MOL      0.070044
     50 N4          5.1550   -3.0040   -1.7900 n         1 MOL     -0.069631
     51 C17         6.4150   -2.6680   -1.0970 c3        1 MOL     -0.196472
     52 C18         6.9900   -1.2540   -1.3530 c         1 MOL      0.527920
     53 O9          8.1350   -1.0190   -1.1130 o         1 MOL     -0.617919
     54 H23         4.4320   -3.3460   -1.1770 hn        1 MOL     -0.021087
     55 H24         7.2320   -3.3380   -1.3710 h1        1 MOL      0.108044
     56 H25         6.3520   -2.7610   -0.0150 h1        1 MOL      0.108044
     57 N5          6.2840   -0.2410   -1.8440 n         1 MOL     -0.191919
     58 C19         6.6880    1.1360   -2.1780 c3        1 MOL     -0.105787
     59 C20         7.2660    2.0180   -1.0270 c         1 MOL      0.491825
     60 O10         7.9120    3.0300   -1.1770 o         1 MOL     -0.567557
     61 C21         5.5910    1.9100   -2.8440 c3        1 MOL     -0.133939
     62 C22         4.2920    2.0060   -2.0370 c         1 MOL      0.709303
     63 O11         4.2080    1.3380   -0.9690 o         1 MOL     -0.685856
     64 O12         3.3050    2.6320   -2.5190 o         1 MOL     -0.685856
     65 H26         5.3120   -0.4180   -2.0440 hn        1 MOL      0.236889
     66 H27         7.4580    0.9340   -2.9380 h1        1 MOL      0.096827
     67 H28         5.4070    1.3660   -3.7740 hc        1 MOL      0.053240
     68 H29         5.8960    2.8880   -3.2110 hc        1 MOL      0.053240
     69 N6          6.8960    1.6260    0.1930 n         1 MOL     -0.156835
     70 C23         7.0360    2.4170    1.4280 c3        1 MOL     -0.187441
     71 C24         5.8860    3.4150    1.7900 c         1 MOL      0.500737
     72 O13         6.2090    4.3350    2.5720 o         1 MOL     -0.597595
     73 H30         6.1900    0.9060    0.2820 hn        1 MOL      0.117593
     74 H31         8.0390    2.8570    1.4150 h1        1 MOL      0.097412
     75 H32         7.1170    1.6400    2.1890 h1        1 MOL      0.097412
     76 N7          4.6880    3.2580    1.2830 n         1 MOL     -0.147752
     77 C25         3.5570    4.1280    1.6260 c3        1 MOL      0.036587
     78 C26         2.3410    3.2720    1.8420 c         1 MOL      0.200279
     79 O14         2.3470    2.1220    1.4220 o         1 MOL     -0.347256
     80 C27         3.2260    5.0870    0.5050 c3        1 MOL      0.010383
     81 C28         4.5110    5.8540    0.0250 c3        1 MOL     -0.436116
     82 C29         4.2570    6.9220   -1.0430 c         1 MOL      0.714851
     83 N8          5.1070    7.1730   -2.0060 n         1 MOL     -0.739703
     84 O15         3.3560    7.7870   -1.0770 o         1 MOL     -0.601812
     85 H33         4.5130    2.5530    0.5830 hn        1 MOL      0.137592
     86 H34         3.7960    4.6750    2.5350 h1        1 MOL      0.043061
     87 H35         2.4150    5.7750    0.7510 hc        1 MOL      0.058876
     88 H36         2.8120    4.4280   -0.2560 hc        1 MOL      0.058876
     89 H37         5.2920    5.1930   -0.3460 hc        1 MOL      0.145537
     90 H38         4.9370    6.3090    0.9270 hc        1 MOL      0.145537
     91 H39         6.0660    6.8800   -1.9660 hn        1 MOL      0.333322
     92 H40         4.8480    7.9870   -2.5390 hn        1 MOL      0.333322
     93 N9          1.2420    3.7500    2.4700 n         1 MOL     -0.192502
     94 C30        -0.0270    2.9950    2.6890 c3        1 MOL     -0.114686
     95 C31        -0.9630    3.3440    1.5580 c         1 MOL      0.391134
     96 O16        -1.4030    4.5310    1.4240 o         1 MOL     -0.557628
     97 C32        -0.5720    3.2690    4.1100 c3        1 MOL      0.211566
     98 C33        -1.8760    2.5620    4.3760 c3        1 MOL     -0.175754
     99 C34         0.4310    2.8080    5.1340 c3        1 MOL     -0.175754
    100 H41         1.3220    4.7270    2.7280 hn        1 MOL      0.232180
    101 H42         0.3130    1.9600    2.6120 h1        1 MOL      0.096580
    102 H43        -0.7680    4.3230    4.3290 hc        1 MOL     -0.014714
    103 H44        -2.2210    2.6790    5.4010 hc        1 MOL      0.029516
    104 H45        -2.6300    2.9300    3.6800 hc        1 MOL      0.029516
    105 H46        -1.7740    1.4830    4.2270 hc        1 MOL      0.029516
    106 H47         0.6750    1.7840    4.8510 hc        1 MOL      0.029516
    107 H48         1.2840    3.4800    5.0190 hc        1 MOL      0.029516
    108 H49         0.1520    2.8650    6.1870 hc        1 MOL      0.029516
    109 N10        -1.3410    2.3380    0.7670 n         1 MOL     -0.063278
    110 C35        -2.4020    2.4580   -0.2030 c3        1 MOL     -0.015160
    111 C36        -3.8120    2.4040    0.5120 c         1 MOL      0.292285
    112 O17        -3.9280    2.0170    1.6780 o         1 MOL     -0.336318
    113 C37        -2.2280    1.3560   -1.2420 c3        1 MOL     -0.510755
    114 C38        -3.1430    1.5930   -2.4110 c         1 MOL      0.729904
    115 N11        -2.9400    2.4890   -3.3520 n         1 MOL     -0.765392
    116 O18        -4.1210    0.7790   -2.5530 o         1 MOL     -0.567945
    117 H50        -0.8240    1.4610    0.8070 hn        1 MOL      0.155644
    118 H51        -2.3670    3.4180   -0.7150 h1        1 MOL      0.079964
    119 H52        -2.2460    0.3270   -0.8710 hc        1 MOL      0.189135
    120 H53        -1.2390    1.3940   -1.6860 hc        1 MOL      0.189135
    121 H54        -2.3250    3.2530   -3.1040 hn        1 MOL      0.371111
    122 H55        -3.5780    2.4470   -4.1420 hn        1 MOL      0.371111
    123 N12        -4.9250    2.8510   -0.1360 n         1 MOL     -0.286164
    124 C39        -6.2770    2.6290    0.3660 c3        1 MOL      0.260370
    125 C40        -6.6880    1.1750    0.7420 c         1 MOL      0.244154
    126 O19        -7.3860    0.8790    1.7020 o         1 MOL     -0.501997
    127 C41        -7.3220    3.2410   -0.5260 c3        1 MOL     -0.451423
    128 C42        -7.0430    3.0030   -2.0520 ca        1 MOL      0.165047
    129 C43        -6.3940    4.0750   -2.7630 ca        1 MOL     -0.198116
    130 C44        -7.4370    1.8420   -2.7930 ca        1 MOL     -0.198116
    131 C45        -6.0280    3.9640   -4.1550 ca        1 MOL     -0.260710
    132 C46        -7.1170    1.7380   -4.1800 ca        1 MOL     -0.260710
    133 C47        -6.4530    2.8230   -4.8410 ca        1 MOL      0.362680
    134 O20        -6.2610    2.7420   -6.1870 oh        1 MOL     -0.582193
    135 H56        -4.8430    3.1900   -1.0830 hn        1 MOL      0.163057
    136 H57        -6.4180    3.1820    1.2950 h1        1 MOL      0.046036
    137 H58        -7.3130    4.2980   -0.2420 hc        1 MOL      0.144918
    138 H59        -8.3150    2.8350   -0.3330 hc        1 MOL      0.144918
    139 H60        -6.0140    4.9390   -2.2250 ha        1 MOL      0.124859
    140 H61        -8.0150    1.1150   -2.2500 ha        1 MOL      0.124859
    141 H62        -5.5670    4.7920   -4.6760 ha        1 MOL      0.141565
    142 H63        -7.3900    0.8510   -4.7240 ha        1 MOL      0.141565
    143 H64        -6.6690    1.9510   -6.5430 ho        1 MOL      0.419603
    144 N13        -6.2180    0.2040   -0.0740 n         1 MOL     -0.066689
    145 C48        -6.4060   -1.1820    0.1890 c3        1 MOL     -0.078320
    146 C49        -5.5440   -1.6680    1.3620 c         1 MOL      0.315971
    147 O21        -6.0700   -2.5480    2.0450 o         1 MOL     -0.495679
    148 C50        -6.1130   -2.0120   -1.0720 c3        1 MOL     -0.087580
    149 C51        -7.1770   -1.9980   -2.2170 c3        1 MOL      0.090080
    150 C52        -8.6060   -2.2170   -1.8410 c         1 MOL      0.614381
    151 O22        -9.4150   -1.2080   -1.8870 o         1 MOL     -0.706647
    152 O23        -8.9690   -3.3940   -1.6380 o         1 MOL     -0.706647
    153 H65        -5.5170    0.3900   -0.7780 hn        1 MOL      0.286437
    154 H66        -7.4390   -1.3920    0.4350 h1        1 MOL      0.144216
    155 H67        -6.0500   -3.0660   -0.8140 hc        1 MOL      0.018583
    156 H68        -5.2170   -1.5500   -1.4660 hc        1 MOL      0.018583
    157 H69        -6.8410   -2.8120   -2.8590 hc        1 MOL     -0.052281
    158 H70        -7.0430   -1.1020   -2.8190 hc        1 MOL     -0.052281
    159 N14        -4.4170   -1.0650    1.6510 n         1 MOL     -0.119793
    160 C53        -3.6760   -1.3090    2.8740 c3        1 MOL     -0.045568
    161 C54        -4.3830   -0.6130    4.1040 c         1 MOL      0.470120
    162 O24        -4.4800   -1.2480    5.1170 o         1 MOL     -0.553528
    163 C55        -2.2100   -0.9280    2.5850 c3        1 MOL      0.147547
    164 C56        -1.4900   -1.9400    1.6850 c3        1 MOL     -0.091942
    165 C57        -0.2320   -1.2280    1.0050 c         1 MOL      0.520828
    166 O25         0.5470   -1.9200    0.3170 o         1 MOL     -0.558309
    167 O26         0.1420   -0.0600    1.2460 o         1 MOL     -0.558309
    168 H71        -4.0150   -0.3920    1.0140 hn        1 MOL      0.076967
    169 H72        -3.6210   -2.3880    2.9960 h1        1 MOL      0.057730
    170 H73        -1.6630   -0.7980    3.5230 hc        1 MOL     -0.028319
    171 H74        -2.1870    0.0200    2.0550 hc        1 MOL     -0.028319
    172 H75        -2.1270   -2.2800    0.8690 hc        1 MOL      0.027820
    173 H76        -1.2520   -2.8280    2.2750 hc        1 MOL      0.027820
    174 N15        -4.9550    0.6040    3.9130 n         1 MOL     -0.040666
    175 C58        -5.3210    1.3790    5.0870 c3        1 MOL     -0.240204
    176 H77        -6.4010    1.3340    5.2290 h1        1 MOL      0.081098
    177 H78        -4.8220    0.9680    5.9650 h1        1 MOL      0.081098
    178 H79        -5.0170    2.4160    4.9470 h1        1 MOL      0.081098
    179 H80        -4.8480    0.9740    2.9790 hn        1 MOL      0.080647
    180 Ca1         2.7070   -0.2770    0.3890 Ca        1 MOL      1.628986
    181 O27         2.2190   -0.6370    3.1270 oh        1 MOL     -0.948095
    182 H81         1.3830   -0.1760    2.9810 ho        1 MOL      0.461570
    183 H82         1.9840   -1.3590    3.7120 ho        1 MOL      0.461570
    184 O28         4.9250   -0.1870    1.7820 oh        1 MOL     -0.948095
    185 H83         5.5550   -0.9060    1.6910 ho        1 MOL      0.461570
    186 H84         4.6220   -0.2580    2.6910 ho        1 MOL      0.461570
    187 O29         1.3490    1.3160   -1.4540 oh        1 MOL     -0.948095
    188 H85         1.9870    1.9660   -1.7490 ho        1 MOL      0.461570
    189 H86         1.4560    0.5810   -2.0530 ho        1 MOL      0.461570
@<TRIPOS>BOND
     1    1    2 1   
     2    1    4 1   
     3    1    5 1   
     4    1    6 1   
     5    2    3 2   
     6    2    7 1   
     7    7    8 1   
     8    7   15 1   
     9    8    9 1   
    10    8   11 1   
    11    8   16 1   
    12    9   10 2   
    13    9   19 1   
    14   11   12 1   
    15   11   17 1   
    16   11   18 1   
    17   12   13 1   
    18   12   14 1   
    19   19   20 1   
    20   19   27 1   
    21   20   21 1   
    22   20   23 1   
    23   20   28 1   
    24   21   22 2   
    25   21   38 1   
    26   23   24 1   
    27   23   25 1   
    28   23   29 1   
    29   24   26 1   
    30   24   30 1   
    31   24   31 1   
    32   25   32 1   
    33   25   33 1   
    34   25   34 1   
    35   26   35 1   
    36   26   36 1   
    37   26   37 1   
    38   38   39 1   
    39   38   46 1   
    40   39   40 1   
    41   39   42 1   
    42   39   47 1   
    43   40   41 2   
    44   40   50 1   
    45   42   43 1   
    46   42   48 1   
    47   42   49 1   
    48   43   44 1   
    49   43   45 1   
    50   50   51 1   
    51   50   54 1   
    52   51   52 1   
    53   51   55 1   
    54   51   56 1   
    55   52   53 2   
    56   52   57 1   
    57   57   58 1   
    58   57   65 1   
    59   58   59 1   
    60   58   61 1   
    61   58   66 1   
    62   59   60 2   
    63   59   69 1   
    64   61   62 1   
    65   61   67 1   
    66   61   68 1   
    67   62   63 1   
    68   62   64 1   
    69   69   70 1   
    70   69   73 1   
    71   70   71 1   
    72   70   74 1   
    73   70   75 1   
    74   71   72 2   
    75   71   76 1   
    76   76   77 1   
    77   76   85 1   
    78   77   78 1   
    79   77   80 1   
    80   77   86 1   
    81   78   79 2   
    82   78   93 1   
    83   80   81 1   
    84   80   87 1   
    85   80   88 1   
    86   81   82 1   
    87   81   89 1   
    88   81   90 1   
    89   82   83 1   
    90   82   84 2   
    91   83   91 1   
    92   83   92 1   
    93   93   94 1   
    94   93  100 1   
    95   94   95 1   
    96   94   97 1   
    97   94  101 1   
    98   95   96 2   
    99   95  109 1   
   100   97   98 1   
   101   97   99 1   
   102   97  102 1   
   103   98  103 1   
   104   98  104 1   
   105   98  105 1   
   106   99  106 1   
   107   99  107 1   
   108   99  108 1   
   109  109  110 1   
   110  109  117 1   
   111  110  111 1   
   112  110  113 1   
   113  110  118 1   
   114  111  112 2   
   115  111  123 1   
   116  113  114 1   
   117  113  119 1   
   118  113  120 1   
   119  114  115 1   
   120  114  116 2   
   121  115  121 1   
   122  115  122 1   
   123  123  124 1   
   124  123  135 1   
   125  124  125 1   
   126  124  127 1   
   127  124  136 1   
   128  125  126 2   
   129  125  144 1   
   130  127  128 1   
   131  127  137 1   
   132  127  138 1   
   133  128  129 ar  
   134  128  130 ar  
   135  129  131 ar  
   136  129  139 1   
   137  130  132 ar  
   138  130  140 1   
   139  131  133 ar  
   140  131  141 1   
   141  132  133 ar  
   142  132  142 1   
   143  133  134 1   
   144  134  143 1   
   145  144  145 1   
   146  144  153 1   
   147  145  146 1   
   148  145  148 1   
   149  145  154 1   
   150  146  147 2   
   151  146  159 1   
   152  148  149 1   
   153  148  155 1   
   154  148  156 1   
   155  149  150 1   
   156  149  157 1   
   157  149  158 1   
   158  150  151 1   
   159  150  152 1   
   160  159  160 1   
   161  159  168 1   
   162  160  161 1   
   163  160  163 1   
   164  160  169 1   
   165  161  162 2   
   166  161  174 1   
   167  163  164 1   
   168  163  170 1   
   169  163  171 1   
   170  164  165 1   
   171  164  172 1   
   172  164  173 1   
   173  165  166 1   
   174  165  167 1   
   175  174  175 1   
   176  174  179 1   
   177  175  176 1   
   178  175  177 1   
   179  175  178 1   
   180  181  182 1   
   181  181  183 1   
   182  184  185 1   
   183  184  186 1   
   184  187  188 1   
   185  187  189 1   
@<TRIPOS>SUBSTRUCTURE
     1 MOL         1 TEMP              0 ****  ****    0 ROOT
