@<TRIPOS>MOLECULE
MOL
  189   185     1     0     0
SMALL
resp


@<TRIPOS>ATOM
      1 C1         -0.4720    3.1650    5.5970 c3        1 MOL     -0.529896
      2 C2         -0.7130    2.5590    4.1530 c         1 MOL      0.819419
      3 O1          0.2060    2.2860    3.4160 o         1 MOL     -0.607125
      4 H1         -0.8540    2.4740    6.3490 hc        1 MOL      0.130656
      5 H2          0.5950    3.3180    5.7540 hc        1 MOL      0.130656
      6 H3         -0.9940    4.1190    5.6830 hc        1 MOL      0.130656
      7 N1         -1.9650    2.2970    3.7830 n         1 MOL     -0.702005
      8 C3         -2.4560    1.9200    2.4250 c3        1 MOL      0.371644
      9 C4         -2.8340    3.1200    1.6290 c         1 MOL      0.205483
     10 O2         -3.8510    3.7780    1.8170 o         1 MOL     -0.513433
     11 C5         -3.5360    0.8950    2.6880 c3        1 MOL     -0.150746
     12 C6         -4.1360    0.3580    1.4210 c         1 MOL      0.661568
     13 O3         -3.5160    0.5080    0.3550 o         1 MOL     -0.654835
     14 O4         -5.3070   -0.0230    1.4070 o         1 MOL     -0.654835
     15 H4         -2.6110    2.4390    4.5380 hn        1 MOL      0.312226
     16 H5         -1.6070    1.4130    1.9770 h1        1 MOL      0.003919
     17 H6         -4.2670    1.3530    3.3630 hc        1 MOL      0.032324
     18 H7         -3.0490    0.0730    3.2010 hc        1 MOL      0.032324
     19 N2         -2.0030    3.4840    0.6520 n         1 MOL      0.110088
     20 C7         -1.9720    4.7790   -0.0450 c3        1 MOL      0.169328
     21 C8         -2.7670    4.8900   -1.3660 c         1 MOL      0.520950
     22 O5         -2.5720    5.8030   -2.0540 o         1 MOL     -0.537102
     23 C9         -0.5410    5.3450   -0.0970 c3        1 MOL     -0.185843
     24 C10         0.1390    5.5750    1.2610 c3        1 MOL      0.089594
     25 C11        -0.4760    6.6460    2.1210 c3        1 MOL     -0.361724
     26 C12         0.2750    6.7080    3.4990 c3        1 MOL      0.072495
     27 N3         -0.2900    7.7570    4.4090 n4        1 MOL     -0.255991
     28 H8         -1.2590    2.8440    0.3970 hn        1 MOL      0.109743
     29 H9         -2.5140    5.3260    0.7270 h1        1 MOL     -0.067084
     30 H10        -0.5640    6.2510   -0.6930 hc        1 MOL      0.049156
     31 H11         0.0350    4.5660   -0.6000 hc        1 MOL      0.049156
     32 H12         1.1910    5.7920    1.0980 hc        1 MOL      0.032932
     33 H13         0.1420    4.6060    1.7730 hc        1 MOL      0.032932
     34 H14        -1.5410    6.4680    2.2970 hc        1 MOL      0.133539
     35 H15        -0.2440    7.5960    1.6400 hc        1 MOL      0.133539
     36 H16         1.2540    7.0120    3.1200 hx        1 MOL      0.068350
     37 H17         0.3220    5.7200    3.9510 hx        1 MOL      0.068350
     38 H18         0.3060    8.0670    5.1640 hn        1 MOL      0.297721
     39 H19        -0.4130    8.5540    3.8010 hn        1 MOL      0.297721
     40 H20        -1.2140    7.5700    4.7620 hn        1 MOL      0.297721
     41 N4         -3.5320    3.8200   -1.6220 n         1 MOL     -0.199238
     42 C13        -4.3870    3.5490   -2.7860 c3        1 MOL      0.002958
     43 C14        -5.5860    2.5430   -2.5550 c         1 MOL      0.455991
     44 O6         -6.2840    2.1730   -3.5500 o         1 MOL     -0.466573
     45 C15        -3.4930    3.0870   -3.9680 c3        1 MOL     -0.295973
     46 C16        -2.5930    1.8530   -3.8480 c         1 MOL      0.892096
     47 O7         -1.8970    1.4370   -4.8560 o         1 MOL     -0.746085
     48 O8         -2.5680    1.3030   -2.7270 o         1 MOL     -0.746085
     49 H21        -3.6160    3.1410   -0.8890 hn        1 MOL     -0.169362
     50 H22        -4.7860    4.4950   -3.1610 h1        1 MOL      0.087540
     51 H23        -2.8150    3.9290   -4.1200 hc        1 MOL      0.064636
     52 H24        -4.1970    2.8480   -4.7620 hc        1 MOL      0.064636
     53 N5         -5.7980    2.1540   -1.3050 n         1 MOL     -0.404720
     54 C17        -7.1550    1.7320   -0.8820 c3        1 MOL     -0.069424
     55 C18        -7.4930    0.3120   -1.4400 c         1 MOL      0.427720
     56 O9         -8.6280    0.0680   -1.9490 o         1 MOL     -0.570203
     57 H25        -5.0630    2.3150   -0.6270 hn        1 MOL      0.436960
     58 H26        -7.8210    2.5180   -1.2140 h1        1 MOL      0.081460
     59 H27        -7.2690    1.7970    0.2010 h1        1 MOL      0.081460
     60 N6         -6.5380   -0.5730   -1.3330 n         1 MOL     -0.139498
     61 C19        -6.7420   -1.9770   -1.7360 c3        1 MOL     -0.114938
     62 C20        -6.5520   -2.9840   -0.5860 c         1 MOL      0.403323
     63 O10        -6.7130   -4.1490   -0.8660 o         1 MOL     -0.514061
     64 C21        -5.7330   -2.1690   -2.8520 c3        1 MOL     -0.056280
     65 C22        -4.2960   -2.0390   -2.4940 c         1 MOL      0.623080
     66 O11        -3.8380   -2.0920   -1.2800 o         1 MOL     -0.662517
     67 O12        -3.4780   -1.8430   -3.4070 o         1 MOL     -0.662517
     68 H28        -5.6210   -0.2280   -1.0890 hn        1 MOL      0.187296
     69 H29        -7.7380   -2.1520   -2.1470 h1        1 MOL      0.148545
     70 H30        -6.0190   -1.5960   -3.7350 hc        1 MOL      0.049018
     71 H31        -5.9210   -3.1610   -3.2670 hc        1 MOL      0.049018
     72 N7         -6.4520   -2.5320    0.6820 n         1 MOL     -0.218339
     73 C23        -6.3410   -3.2700    1.9120 c3        1 MOL     -0.144003
     74 C24        -5.0780   -4.0930    2.0030 c         1 MOL      0.573221
     75 O13        -5.0890   -5.0510    2.7460 o         1 MOL     -0.590473
     76 H32        -6.3710   -1.5230    0.7400 hn        1 MOL      0.187440
     77 H33        -7.1800   -3.9190    2.1260 h1        1 MOL      0.091971
     78 H34        -6.2580   -2.5050    2.6780 h1        1 MOL      0.091971
     79 N8         -4.0230   -3.7310    1.3030 n         1 MOL     -0.217462
     80 C25        -2.7030   -4.3050    1.5160 c3        1 MOL     -0.180623
     81 C26        -1.5580   -3.3280    1.4720 c         1 MOL      0.751277
     82 O14        -1.7000   -2.1630    0.9650 o         1 MOL     -0.728989
     83 C27        -2.4820   -5.3930    0.4270 c3        1 MOL      0.265828
     84 C28        -3.5070   -6.5280    0.3450 c3        1 MOL     -0.321936
     85 O15        -2.4710   -4.7390   -0.8530 oh        1 MOL     -0.599431
     86 H35        -4.1380   -3.0150    0.6000 hn        1 MOL      0.157986
     87 H36        -2.6350   -4.8190    2.4700 h1        1 MOL      0.085514
     88 H37        -1.5470   -5.9150    0.6560 h1        1 MOL      0.053072
     89 H38        -3.2890   -4.2520   -0.9720 ho        1 MOL      0.415714
     90 H39        -4.4990   -6.1650    0.0960 hc        1 MOL      0.095551
     91 H40        -3.1830   -7.3560   -0.2960 hc        1 MOL      0.095551
     92 H41        -3.4930   -7.0880    1.2800 hc        1 MOL      0.095551
     93 N9         -0.4050   -3.7670    1.9680 n         1 MOL     -0.564275
     94 C29         0.8580   -2.9700    2.0410 c3        1 MOL      0.054210
     95 C30         1.8230   -3.5430    1.0320 c         1 MOL      0.642233
     96 O16         2.1550   -4.6900    1.1120 o         1 MOL     -0.595258
     97 C31         1.2750   -2.7190    3.4580 c3        1 MOL      0.035250
     98 C32         0.2600   -1.8430    4.0600 c3        1 MOL      0.286671
     99 C33         2.6540   -2.0530    3.5610 c3        1 MOL     -0.250217
    100 C34         0.4890   -1.4730    5.5090 c3        1 MOL     -0.516289
    101 H42        -0.4210   -4.7120    2.3190 hn        1 MOL      0.297778
    102 H43         0.7290   -1.9760    1.6120 h1        1 MOL      0.084515
    103 H44         1.4040   -3.6000    4.0760 hc        1 MOL      0.029545
    104 H45        -0.6270   -2.4760    4.2010 hc        1 MOL     -0.025803
    105 H46        -0.0400   -1.0070    3.4260 hc        1 MOL     -0.025803
    106 H47         2.5140   -1.0300    3.2390 hc        1 MOL      0.036053
    107 H48         3.0120   -1.9110    4.5890 hc        1 MOL      0.036053
    108 H49         3.4250   -2.4640    2.9080 hc        1 MOL      0.036053
    109 H50         1.2540   -0.7030    5.4530 hc        1 MOL      0.128213
    110 H51        -0.3110   -0.9010    5.9880 hc        1 MOL      0.128213
    111 H52         0.9780   -2.2490    6.0920 hc        1 MOL      0.128213
    112 N10         2.3030   -2.7300    0.1270 n         1 MOL     -0.312629
    113 C35         3.4980   -2.9270   -0.6890 c3        1 MOL     -0.050315
    114 C36         4.8100   -2.6950    0.0540 c         1 MOL      0.366446
    115 O17         4.8530   -2.0300    1.0480 o         1 MOL     -0.243354
    116 C37         3.4670   -2.0350   -1.9800 c3        1 MOL      0.343257
    117 C38         2.3990   -2.4500   -3.0300 c3        1 MOL     -0.485457
    118 O18         3.1910   -0.6560   -1.5750 oh        1 MOL     -0.570799
    119 H53         1.8110   -1.8430    0.1220 hn        1 MOL      0.139766
    120 H54         3.6700   -3.9330   -1.0670 h1        1 MOL      0.078462
    121 H55         4.3950   -2.0860   -2.5580 h1        1 MOL      0.017846
    122 H56         2.3320   -0.6880   -1.1390 ho        1 MOL      0.368772
    123 H57         2.5120   -3.5030   -3.2750 hc        1 MOL      0.130494
    124 H58         1.3850   -2.2770   -2.6790 hc        1 MOL      0.130494
    125 H59         2.4800   -1.7410   -3.8530 hc        1 MOL      0.130494
    126 N11         5.9550   -3.1700   -0.5170 n         1 MOL     -0.257614
    127 C39         7.2640   -2.7000   -0.1170 c3        1 MOL     -0.464643
    128 C40         7.3500   -1.1110   -0.0910 c         1 MOL      0.454178
    129 O19         7.9300   -0.5460    0.8140 o         1 MOL     -0.462199
    130 C41         8.3090   -3.1780   -1.1410 c3        1 MOL      0.640862
    131 C42         8.4330   -4.7150   -1.2780 c3        1 MOL     -0.426969
    132 O20         8.1010   -2.7100   -2.4480 oh        1 MOL     -0.725881
    133 H60         5.8430   -3.7130   -1.3610 hn        1 MOL      0.183036
    134 H61         7.5210   -3.1460    0.8460 h1        1 MOL      0.199312
    135 H62         9.2810   -2.8970   -0.7460 h1        1 MOL      0.019297
    136 H63         7.2780   -2.9990   -2.8620 ho        1 MOL      0.422366
    137 H64         7.4870   -5.1980   -1.5450 hc        1 MOL      0.106653
    138 H65         9.0970   -4.9110   -2.1170 hc        1 MOL      0.106653
    139 H66         8.8230   -5.0700   -0.3230 hc        1 MOL      0.106653
    140 N12         6.8700   -0.4140   -1.1120 n         1 MOL     -0.176250
    141 C43         6.8750    1.0570   -1.1950 c3        1 MOL     -0.282852
    142 C44         6.1270    1.7370   -0.0340 c         1 MOL      0.342307
    143 O21         6.6310    2.6670    0.6050 o         1 MOL     -0.477455
    144 C45         6.2190    1.5870   -2.4750 c3        1 MOL     -0.034108
    145 C46         6.8110    1.1550   -3.8330 c3        1 MOL      0.125000
    146 C47         6.2330    1.7140   -5.0610 c3        1 MOL     -0.026313
    147 C48         5.9690    3.1750   -5.0820 c3        1 MOL      0.012819
    148 N13         7.1470    4.0810   -5.0380 n4        1 MOL     -0.388803
    149 H67         6.5480   -0.8870   -1.9380 hn        1 MOL      0.215158
    150 H68         7.9100    1.3530   -1.0670 h1        1 MOL      0.154020
    151 H69         6.1360    2.6730   -2.4770 hc        1 MOL      0.044399
    152 H70         5.1890    1.2470   -2.3600 hc        1 MOL      0.044399
    153 H71         6.7850    0.0720   -3.8840 hc        1 MOL     -0.023615
    154 H72         7.8580    1.4730   -3.8010 hc        1 MOL     -0.023615
    155 H73         5.3550    1.1460   -5.3640 hc        1 MOL      0.043323
    156 H74         7.0040    1.5400   -5.8180 hc        1 MOL      0.043323
    157 H75         5.2380    3.3750   -4.3070 hx        1 MOL      0.096917
    158 H76         5.4280    3.3200   -6.0060 hx        1 MOL      0.096917
    159 H77         6.8940    5.0580   -4.9520 hn        1 MOL      0.325424
    160 H78         7.7000    3.9760   -4.2050 hn        1 MOL      0.325424
    161 H79         7.7580    3.8950   -5.8230 hn        1 MOL      0.325424
    162 N14         4.9500    1.1440    0.3200 n         1 MOL      0.011111
    163 C49         4.2240    1.6390    1.4800 c3        1 MOL     -0.271000
    164 C50         4.8620    1.2270    2.8810 c         1 MOL      0.477747
    165 O22         4.6940    1.9430    3.8890 o         1 MOL     -0.557060
    166 C51         2.7410    1.1440    1.3970 c3        1 MOL      0.135298
    167 C52         1.9260    1.7400    0.2480 c3        1 MOL      0.047536
    168 C53         0.7080    0.8810   -0.0590 c         1 MOL      0.557934
    169 O23        -0.4360    1.3680   -0.2560 o         1 MOL     -0.612886
    170 O24         0.8360   -0.3700   -0.1950 o         1 MOL     -0.612886
    171 H80         4.4510    0.4600   -0.2290 hn        1 MOL      0.130524
    172 H81         4.1490    2.7270    1.4240 h1        1 MOL      0.101869
    173 H82         2.2080    1.2660    2.3350 hc        1 MOL      0.014432
    174 H83         2.8250    0.0660    1.3180 hc        1 MOL      0.014432
    175 H84         2.6330    1.8560   -0.5710 hc        1 MOL     -0.039375
    176 H85         1.6370    2.7490    0.5680 hc        1 MOL     -0.039375
    177 N15         5.6140    0.0790    3.0360 n         1 MOL     -0.066382
    178 C54         6.2420   -0.3980    4.2160 c3        1 MOL     -0.255826
    179 H86         5.5390   -1.0140    4.7770 h1        1 MOL      0.097806
    180 H87         7.1140   -0.9950    3.9480 h1        1 MOL      0.097806
    181 H88         6.5540    0.4460    4.8300 h1        1 MOL      0.097806
    182 H89         5.6250   -0.5100    2.2090 hn        1 MOL      0.101403
    183 Ca1        -1.7080   -0.6030   -1.1020 Ca        1 MOL      1.733669
    184 O25        -0.3220   -0.0310   -3.3610 oh        1 MOL     -0.901686
    185 H90         0.0180   -0.6820   -3.9680 ho        1 MOL      0.411297
    186 H91        -0.9950    0.4430   -3.8570 ho        1 MOL      0.411297
    187 O26        -1.0080   -3.0260   -2.0490 oh        1 MOL     -0.901686
    188 H92        -1.0410   -3.2890   -2.9650 ho        1 MOL      0.411297
    189 H93        -1.4260   -3.7480   -1.5730 ho        1 MOL      0.411297
@<TRIPOS>BOND
     1    1    2 1   
     2    1    4 1   
     3    1    5 1   
     4    1    6 1   
     5    2    3 2   
     6    2    7 1   
     7    7    8 1   
     8    7   15 1   
     9    8    9 1   
    10    8   11 1   
    11    8   16 1   
    12    9   10 2   
    13    9   19 1   
    14   11   12 1   
    15   11   17 1   
    16   11   18 1   
    17   12   13 1   
    18   12   14 1   
    19   19   20 1   
    20   19   28 1   
    21   20   21 1   
    22   20   23 1   
    23   20   29 1   
    24   21   22 2   
    25   21   41 1   
    26   23   24 1   
    27   23   30 1   
    28   23   31 1   
    29   24   25 1   
    30   24   32 1   
    31   24   33 1   
    32   25   26 1   
    33   25   34 1   
    34   25   35 1   
    35   26   27 1   
    36   26   36 1   
    37   26   37 1   
    38   27   38 1   
    39   27   39 1   
    40   27   40 1   
    41   41   42 1   
    42   41   49 1   
    43   42   43 1   
    44   42   45 1   
    45   42   50 1   
    46   43   44 2   
    47   43   53 1   
    48   45   46 1   
    49   45   51 1   
    50   45   52 1   
    51   46   47 1   
    52   46   48 1   
    53   53   54 1   
    54   53   57 1   
    55   54   55 1   
    56   54   58 1   
    57   54   59 1   
    58   55   56 2   
    59   55   60 1   
    60   60   61 1   
    61   60   68 1   
    62   61   62 1   
    63   61   64 1   
    64   61   69 1   
    65   62   63 2   
    66   62   72 1   
    67   64   65 1   
    68   64   70 1   
    69   64   71 1   
    70   65   66 1   
    71   65   67 1   
    72   72   73 1   
    73   72   76 1   
    74   73   74 1   
    75   73   77 1   
    76   73   78 1   
    77   74   75 2   
    78   74   79 1   
    79   79   80 1   
    80   79   86 1   
    81   80   81 1   
    82   80   83 1   
    83   80   87 1   
    84   81   82 2   
    85   81   93 1   
    86   83   84 1   
    87   83   85 1   
    88   83   88 1   
    89   84   90 1   
    90   84   91 1   
    91   84   92 1   
    92   85   89 1   
    93   93   94 1   
    94   93  101 1   
    95   94   95 1   
    96   94   97 1   
    97   94  102 1   
    98   95   96 2   
    99   95  112 1   
   100   97   98 1   
   101   97   99 1   
   102   97  103 1   
   103   98  100 1   
   104   98  104 1   
   105   98  105 1   
   106   99  106 1   
   107   99  107 1   
   108   99  108 1   
   109  100  109 1   
   110  100  110 1   
   111  100  111 1   
   112  112  113 1   
   113  112  119 1   
   114  113  114 1   
   115  113  116 1   
   116  113  120 1   
   117  114  115 2   
   118  114  126 1   
   119  116  117 1   
   120  116  118 1   
   121  116  121 1   
   122  117  123 1   
   123  117  124 1   
   124  117  125 1   
   125  118  122 1   
   126  126  127 1   
   127  126  133 1   
   128  127  128 1   
   129  127  130 1   
   130  127  134 1   
   131  128  129 2   
   132  128  140 1   
   133  130  131 1   
   134  130  132 1   
   135  130  135 1   
   136  131  137 1   
   137  131  138 1   
   138  131  139 1   
   139  132  136 1   
   140  140  141 1   
   141  140  149 1   
   142  141  142 1   
   143  141  144 1   
   144  141  150 1   
   145  142  143 2   
   146  142  162 1   
   147  144  145 1   
   148  144  151 1   
   149  144  152 1   
   150  145  146 1   
   151  145  153 1   
   152  145  154 1   
   153  146  147 1   
   154  146  155 1   
   155  146  156 1   
   156  147  148 1   
   157  147  157 1   
   158  147  158 1   
   159  148  159 1   
   160  148  160 1   
   161  148  161 1   
   162  162  163 1   
   163  162  171 1   
   164  163  164 1   
   165  163  166 1   
   166  163  172 1   
   167  164  165 2   
   168  164  177 1   
   169  166  167 1   
   170  166  173 1   
   171  166  174 1   
   172  167  168 1   
   173  167  175 1   
   174  167  176 1   
   175  168  169 1   
   176  168  170 1   
   177  177  178 1   
   178  177  182 1   
   179  178  179 1   
   180  178  180 1   
   181  178  181 1   
   182  184  185 1   
   183  184  186 1   
   184  187  188 1   
   185  187  189 1   
@<TRIPOS>SUBSTRUCTURE
     1 MOL         1 TEMP              0 ****  ****    0 ROOT
