@<TRIPOS>MOLECULE
MOL
  179   176     1     0     0
SMALL
resp


@<TRIPOS>ATOM
      1 C1          1.7540    4.1790    4.5790 c3        1 MOL     -0.246533
      2 C2          1.1210    3.7250    3.2720 c         1 MOL      0.547161
      3 O1          1.7930    3.6390    2.2930 o         1 MOL     -0.519278
      4 H1          2.8050    4.4160    4.4100 hc        1 MOL      0.066424
      5 H2          1.2370    5.0670    4.9440 hc        1 MOL      0.066424
      6 H3          1.6750    3.3820    5.3180 hc        1 MOL      0.066424
      7 N1         -0.1970    3.4460    3.2520 n         1 MOL     -0.524384
      8 C3         -0.9410    2.9560    2.1350 c3        1 MOL      0.164870
      9 C4         -1.4190    4.1730    1.2630 c         1 MOL      0.437808
     10 O2         -2.5800    4.6390    1.4060 o         1 MOL     -0.473399
     11 C5         -2.1700    2.1130    2.6460 c3        1 MOL     -0.209721
     12 C6         -2.9710    1.5030    1.5350 c         1 MOL      0.756346
     13 O3         -4.0820    1.1330    1.8850 o         1 MOL     -0.694867
     14 O4         -2.5860    1.4050    0.3990 o         1 MOL     -0.694867
     15 H4         -0.6570    3.5160    4.1470 hn        1 MOL      0.317334
     16 H5         -0.3000    2.3090    1.5240 h1        1 MOL     -0.008060
     17 H6         -2.8170    2.7100    3.2870 hc        1 MOL      0.055988
     18 H7         -1.7720    1.2780    3.2140 hc        1 MOL      0.055988
     19 N2         -0.5400    4.7600    0.4070 n         1 MOL     -0.366543
     20 C7         -0.7180    6.0680   -0.2670 c3        1 MOL     -0.001914
     21 C8         -1.7750    6.0140   -1.4070 c         1 MOL      0.476963
     22 O5         -1.9290    7.0200   -2.1010 o         1 MOL     -0.564661
     23 C9          0.6440    6.6400   -0.6220 c3        1 MOL     -0.214602
     24 C10         1.7340    6.7990    0.5150 c3        1 MOL      0.450406
     25 C11         2.9870    7.4620   -0.1160 c3        1 MOL     -0.058997
     26 C12         4.1460    7.6470    0.9600 c3        1 MOL     -0.062392
     27 N3          3.7580    8.4520    2.1520 n4        1 MOL     -0.372803
     28 H8          0.3960    4.3740    0.3720 hn        1 MOL      0.307549
     29 H9         -1.1370    6.7110    0.5020 h1        1 MOL      0.071592
     30 H10         0.4840    7.6200   -1.0630 hc        1 MOL      0.083200
     31 H11         1.1560    6.0490   -1.3940 hc        1 MOL      0.083200
     32 H12         2.0360    5.8500    0.9640 hc        1 MOL     -0.122313
     33 H13         1.3340    7.4070    1.3200 hc        1 MOL     -0.122313
     34 H14         2.6090    8.4190   -0.4720 hc        1 MOL      0.020839
     35 H15         3.3430    6.8630   -0.9540 hc        1 MOL      0.020839
     36 H16         4.9780    8.1670    0.4750 hx        1 MOL      0.128252
     37 H17         4.4270    6.6500    1.2800 hx        1 MOL      0.128252
     38 H18         3.0250    7.9510    2.6430 hn        1 MOL      0.330684
     39 H19         4.5670    8.4810    2.7540 hn        1 MOL      0.330684
     40 H20         3.3160    9.3100    1.8550 hn        1 MOL      0.330684
     41 N4         -2.5270    4.9460   -1.5430 n         1 MOL     -0.192587
     42 C13        -3.6080    4.5930   -2.4930 c3        1 MOL      0.138266
     43 C14        -4.9210    4.2000   -1.7560 c         1 MOL      0.287094
     44 O6         -5.9310    4.1220   -2.4490 o         1 MOL     -0.487651
     45 C15        -3.1210    3.5840   -3.5630 c3        1 MOL     -0.253682
     46 C16        -2.5610    2.4090   -2.8860 c         1 MOL      0.767895
     47 O7         -1.4110    2.5670   -2.3970 o         1 MOL     -0.719330
     48 O8         -3.1620    1.3110   -2.8840 o         1 MOL     -0.719330
     49 H21        -2.4300    4.1360   -0.9470 hn        1 MOL      0.093197
     50 H22        -3.7670    5.5410   -3.0150 h1        1 MOL      0.065217
     51 H23        -2.3020    3.9520   -4.1810 hc        1 MOL      0.068062
     52 H24        -3.9570    3.2550   -4.1870 hc        1 MOL      0.068062
     53 N5         -4.8250    3.8590   -0.4620 n         1 MOL     -0.050348
     54 C17        -5.9740    3.5030    0.2800 c3        1 MOL     -0.160583
     55 C18        -6.4970    2.1090    0.0700 c         1 MOL      0.412597
     56 O9         -7.5960    1.8410    0.6140 o         1 MOL     -0.543923
     57 H25        -4.0000    4.0570    0.0800 hn        1 MOL      0.073145
     58 H26        -6.7980    4.2110    0.2530 h1        1 MOL      0.118283
     59 H27        -5.6310    3.6470    1.3020 h1        1 MOL      0.118283
     60 N6         -5.8270    1.2070   -0.7230 n         1 MOL     -0.161787
     61 C19        -6.4410   -0.0580   -1.1480 c3        1 MOL     -0.104648
     62 C20        -6.6150   -1.1100    0.0120 c         1 MOL      0.391443
     63 O10        -7.3880   -2.0600   -0.0980 o         1 MOL     -0.533936
     64 C21        -5.8230   -0.6380   -2.4330 c3        1 MOL     -0.076581
     65 C22        -4.5100   -1.4690   -2.1720 c         1 MOL      0.756119
     66 N7         -4.3000   -2.4760   -2.9750 n         1 MOL     -0.867001
     67 O11        -3.6990   -1.1420   -1.3820 o         1 MOL     -0.699044
     68 H28        -4.9110    1.4760   -1.0550 hn        1 MOL      0.233361
     69 H29        -7.4670    0.1070   -1.4990 h1        1 MOL      0.117679
     70 H30        -5.6110    0.1560   -3.1480 hc        1 MOL      0.045707
     71 H31        -6.4720   -1.3840   -2.8820 hc        1 MOL      0.045707
     72 H32        -4.8820   -2.7700   -3.7400 hn        1 MOL      0.376487
     73 H33        -3.5010   -3.0650   -2.8200 hn        1 MOL      0.376487
     74 N8         -5.9060   -0.9710    1.1280 n         1 MOL     -0.026320
     75 C23        -5.9860   -1.9620    2.2140 c3        1 MOL     -0.330822
     76 C24        -4.7780   -2.8840    2.4590 c         1 MOL      0.676121
     77 O12        -4.7860   -3.8950    3.1890 o         1 MOL     -0.560564
     78 H34        -5.2830   -0.1830    1.2280 hn        1 MOL      0.195943
     79 H35        -6.8960   -2.5550    2.1840 h1        1 MOL      0.129681
     80 H36        -5.9960   -1.3550    3.1190 h1        1 MOL      0.129681
     81 N9         -3.6540   -2.4680    1.8750 n         1 MOL     -0.667245
     82 C25        -2.5190   -3.3710    1.5850 c3        1 MOL      0.439292
     83 C26        -1.2240   -2.6080    1.4570 c         1 MOL      0.339217
     84 O13        -1.1650   -1.4610    0.9240 o         1 MOL     -0.506678
     85 C27        -2.7570   -4.1760    0.2390 c3        1 MOL      0.030735
     86 C28        -3.8340   -5.2640    0.2960 ca        1 MOL      0.046281
     87 C29        -5.1510   -4.9870   -0.2090 ca        1 MOL     -0.256669
     88 C30        -3.5590   -6.5750    0.7420 ca        1 MOL     -0.256669
     89 C31        -6.1410   -5.9920   -0.2350 ca        1 MOL     -0.054480
     90 C32        -4.5530   -7.5990    0.7770 ca        1 MOL     -0.054480
     91 C33        -5.8010   -7.2970    0.2210 ca        1 MOL      0.121033
     92 O14        -6.8050   -8.1630    0.3620 oh        1 MOL     -0.471692
     93 H37        -3.6450   -1.5660    1.4260 hn        1 MOL      0.346563
     94 H38        -2.3630   -4.0170    2.4480 h1        1 MOL     -0.010920
     95 H39        -1.8180   -4.6580   -0.0310 hc        1 MOL     -0.031784
     96 H40        -3.0180   -3.5180   -0.5870 hc        1 MOL     -0.031784
     97 H41        -5.3640   -3.9850   -0.5590 ha        1 MOL      0.129559
     98 H42        -2.5460   -6.8920    0.9600 ha        1 MOL      0.129559
     99 H43        -7.1400   -5.7820   -0.6090 ha        1 MOL      0.107814
    100 H44        -4.4230   -8.6470    0.9980 ha        1 MOL      0.107814
    101 H45        -7.6520   -7.7690    0.1700 ho        1 MOL      0.387921
    102 N10        -0.1380   -3.2860    1.8380 n         1 MOL     -0.382428
    103 C34         1.2240   -2.9270    1.6400 c3        1 MOL      0.132682
    104 C35         2.1130   -4.0170    0.9800 c         1 MOL      0.415118
    105 O15         2.1120   -5.1470    1.4030 o         1 MOL     -0.511813
    106 C36         1.7800   -2.3740    2.9810 c3        1 MOL      0.079748
    107 C37         1.3280   -0.9910    3.5160 c3        1 MOL     -0.383513
    108 C38         3.2950   -2.2400    2.9460 c3        1 MOL     -0.104407
    109 C39         1.7030    0.1760    2.7320 c3        1 MOL      0.369495
    110 H46        -0.2930   -4.1880    2.2790 hn        1 MOL      0.250349
    111 H47         1.2080   -2.0940    0.9410 h1        1 MOL      0.050890
    112 H48         1.4740   -3.0750    3.7540 hc        1 MOL      0.027249
    113 H49         1.7650   -0.9180    4.5120 hc        1 MOL      0.085158
    114 H50         0.2480   -0.9410    3.6280 hc        1 MOL      0.085158
    115 H51         3.7940   -3.2170    2.9180 hc        1 MOL      0.013797
    116 H52         3.7260   -1.6580    2.1410 hc        1 MOL      0.013797
    117 H53         3.7200   -1.8990    3.8890 hc        1 MOL      0.013797
    118 H54         2.6820    0.5930    2.9700 hc        1 MOL     -0.063891
    119 H55         1.6900   -0.2130    1.7130 hc        1 MOL     -0.063891
    120 H56         0.9450    0.9530    2.7060 hc        1 MOL     -0.063891
    121 N11         3.0130   -3.4950    0.1500 n         1 MOL     -0.316522
    122 C40         4.1090   -4.2900   -0.3340 c3        1 MOL      0.119662
    123 C41         5.4530   -3.6640    0.0230 c         1 MOL      0.452434
    124 O16         5.5550   -2.5840    0.5460 o         1 MOL     -0.403077
    125 C42         3.8880   -4.7330   -1.7970 c3        1 MOL     -0.169455
    126 O17         3.7240   -3.5630   -2.6480 oh        1 MOL     -0.575091
    127 H57         2.9230   -2.5280   -0.1000 hn        1 MOL      0.276214
    128 H58         4.0740   -5.2370    0.2090 h1        1 MOL      0.043796
    129 H59         2.9880   -5.3290   -1.9500 h1        1 MOL      0.132922
    130 H60         4.7580   -5.3130   -2.1090 h1        1 MOL      0.132922
    131 H61         2.7870   -3.4350   -2.7800 ho        1 MOL      0.410000
    132 N12         6.5690   -4.3280   -0.3190 n         1 MOL     -0.432413
    133 C43         7.9080   -3.8560   -0.1060 c3        1 MOL      0.142651
    134 C44         8.2280   -2.5020   -0.8380 c         1 MOL      0.476686
    135 O18         9.0440   -1.6790   -0.3630 o         1 MOL     -0.525678
    136 C45         8.8900   -5.0320   -0.3370 c3        1 MOL     -0.394825
    137 H62         6.3770   -5.2720   -0.6220 hn        1 MOL      0.257896
    138 H63         7.9560   -3.5560    0.9350 h1        1 MOL      0.068222
    139 H64         8.6810   -5.8680    0.3270 hc        1 MOL      0.125328
    140 H65         8.9680   -5.2060   -1.4060 hc        1 MOL      0.125328
    141 H66         9.7890   -4.6360    0.1370 hc        1 MOL      0.125328
    142 N13         7.6280   -2.3380   -2.0050 n         1 MOL     -0.399658
    143 C46         7.6680   -1.1400   -2.8480 c3        1 MOL      0.119636
    144 C47         7.0550    0.1570   -2.1060 c         1 MOL      0.388628
    145 O19         7.5720    1.2300   -2.3380 o         1 MOL     -0.510353
    146 C48         6.8310   -1.4170   -4.1180 c3        1 MOL     -0.379465
    147 H67         6.9240   -3.0380   -2.2120 hn        1 MOL      0.277089
    148 H68         8.6850   -0.7990   -3.0420 h1        1 MOL      0.098869
    149 H69         5.7460   -1.5100   -4.0400 hc        1 MOL      0.109797
    150 H70         7.0570   -0.6160   -4.8160 hc        1 MOL      0.109797
    151 H71         7.2690   -2.3150   -4.5610 hc        1 MOL      0.109797
    152 N14         6.0800    0.0320   -1.1850 n         1 MOL     -0.151624
    153 C49         5.4920    1.1390   -0.4810 c3        1 MOL     -0.053459
    154 C50         6.1840    1.3870    0.8930 c         1 MOL      0.401790
    155 O20         6.2300    2.4890    1.4250 o         1 MOL     -0.575551
    156 C51         4.0640    0.9090   -0.0980 c3        1 MOL      0.257725
    157 C52         3.1550    0.5970   -1.3170 c3        1 MOL     -0.051232
    158 C53         1.7290    0.3560   -0.9750 c         1 MOL      0.740178
    159 O21         1.2990   -0.8110   -1.1030 o         1 MOL     -0.761917
    160 O22         0.9250    1.2290   -0.6470 o         1 MOL     -0.761917
    161 H72         5.7290   -0.8720   -0.9250 hn        1 MOL      0.202354
    162 H73         5.6040    2.0480   -1.0680 h1        1 MOL      0.094314
    163 H74         3.6970    1.7930    0.4140 hc        1 MOL     -0.043412
    164 H75         3.9630   -0.0020    0.4970 hc        1 MOL     -0.043412
    165 H76         3.5880   -0.2200   -1.8990 hc        1 MOL     -0.037181
    166 H77         3.3070    1.5190   -1.8690 hc        1 MOL     -0.037181
    167 N15         6.7460    0.3730    1.4310 n         1 MOL      0.010641
    168 C54         7.6070    0.4700    2.5830 c3        1 MOL     -0.535849
    169 H78         8.6170    0.7240    2.2600 h1        1 MOL      0.178435
    170 H79         7.2340    1.2440    3.2520 h1        1 MOL      0.178435
    171 H80         7.6230   -0.4870    3.1060 h1        1 MOL      0.178435
    172 H81         6.6920   -0.4810    0.9050 hn        1 MOL      0.075463
    173 Ca1        -1.2740    0.0060   -1.2560 Ca        1 MOL      1.708435
    174 O23        -0.3930   -0.2670   -3.6900 oh        1 MOL     -0.785091
    175 H82        -0.5400    0.4410   -4.3300 ho        1 MOL      0.389204
    176 H83        -0.5040   -1.0680   -4.1950 ho        1 MOL      0.389204
    177 O24        -1.2030   -2.8340   -2.1260 oh        1 MOL     -0.785091
    178 H84        -1.7800   -3.5330   -2.4440 ho        1 MOL      0.389204
    179 H85        -0.3200   -3.1590   -2.3130 ho        1 MOL      0.389204
@<TRIPOS>BOND
     1    1    2 1   
     2    1    4 1   
     3    1    5 1   
     4    1    6 1   
     5    2    3 2   
     6    2    7 1   
     7    7    8 1   
     8    7   15 1   
     9    8    9 1   
    10    8   11 1   
    11    8   16 1   
    12    9   10 2   
    13    9   19 1   
    14   11   12 1   
    15   11   17 1   
    16   11   18 1   
    17   12   13 1   
    18   12   14 1   
    19   19   20 1   
    20   19   28 1   
    21   20   21 1   
    22   20   23 1   
    23   20   29 1   
    24   21   22 2   
    25   21   41 1   
    26   23   24 1   
    27   23   30 1   
    28   23   31 1   
    29   24   25 1   
    30   24   32 1   
    31   24   33 1   
    32   25   26 1   
    33   25   34 1   
    34   25   35 1   
    35   26   27 1   
    36   26   36 1   
    37   26   37 1   
    38   27   38 1   
    39   27   39 1   
    40   27   40 1   
    41   41   42 1   
    42   41   49 1   
    43   42   43 1   
    44   42   45 1   
    45   42   50 1   
    46   43   44 2   
    47   43   53 1   
    48   45   46 1   
    49   45   51 1   
    50   45   52 1   
    51   46   47 1   
    52   46   48 1   
    53   53   54 1   
    54   53   57 1   
    55   54   55 1   
    56   54   58 1   
    57   54   59 1   
    58   55   56 2   
    59   55   60 1   
    60   60   61 1   
    61   60   68 1   
    62   61   62 1   
    63   61   64 1   
    64   61   69 1   
    65   62   63 2   
    66   62   74 1   
    67   64   65 1   
    68   64   70 1   
    69   64   71 1   
    70   65   66 1   
    71   65   67 2   
    72   66   72 1   
    73   66   73 1   
    74   74   75 1   
    75   74   78 1   
    76   75   76 1   
    77   75   79 1   
    78   75   80 1   
    79   76   77 2   
    80   76   81 1   
    81   81   82 1   
    82   81   93 1   
    83   82   83 1   
    84   82   85 1   
    85   82   94 1   
    86   83   84 2   
    87   83  102 1   
    88   85   86 1   
    89   85   95 1   
    90   85   96 1   
    91   86   87 ar  
    92   86   88 ar  
    93   87   89 ar  
    94   87   97 1   
    95   88   90 ar  
    96   88   98 1   
    97   89   91 ar  
    98   89   99 1   
    99   90   91 ar  
   100   90  100 1   
   101   91   92 1   
   102   92  101 1   
   103  102  103 1   
   104  102  110 1   
   105  103  104 1   
   106  103  106 1   
   107  103  111 1   
   108  104  105 2   
   109  104  121 1   
   110  106  107 1   
   111  106  108 1   
   112  106  112 1   
   113  107  109 1   
   114  107  113 1   
   115  107  114 1   
   116  108  115 1   
   117  108  116 1   
   118  108  117 1   
   119  109  118 1   
   120  109  119 1   
   121  109  120 1   
   122  121  122 1   
   123  121  127 1   
   124  122  123 1   
   125  122  125 1   
   126  122  128 1   
   127  123  124 2   
   128  123  132 1   
   129  125  126 1   
   130  125  129 1   
   131  125  130 1   
   132  126  131 1   
   133  132  133 1   
   134  132  137 1   
   135  133  134 1   
   136  133  136 1   
   137  133  138 1   
   138  134  135 2   
   139  134  142 1   
   140  136  139 1   
   141  136  140 1   
   142  136  141 1   
   143  142  143 1   
   144  142  147 1   
   145  143  144 1   
   146  143  146 1   
   147  143  148 1   
   148  144  145 2   
   149  144  152 1   
   150  146  149 1   
   151  146  150 1   
   152  146  151 1   
   153  152  153 1   
   154  152  161 1   
   155  153  154 1   
   156  153  156 1   
   157  153  162 1   
   158  154  155 2   
   159  154  167 1   
   160  156  157 1   
   161  156  163 1   
   162  156  164 1   
   163  157  158 1   
   164  157  165 1   
   165  157  166 1   
   166  158  159 1   
   167  158  160 1   
   168  167  168 1   
   169  167  172 1   
   170  168  169 1   
   171  168  170 1   
   172  168  171 1   
   173  174  175 1   
   174  174  176 1   
   175  177  178 1   
   176  177  179 1   
@<TRIPOS>SUBSTRUCTURE
     1 MOL         1 TEMP              0 ****  ****    0 ROOT
