@<TRIPOS>MOLECULE
MOL
  189   185     1     0     0
SMALL
resp


@<TRIPOS>ATOM
      1 C1          0.0390    2.7910   -5.3160 c3        1 MOL     -0.401293
      2 C2          0.5260    2.5350   -3.9100 c         1 MOL      0.748384
      3 O1         -0.1790    2.7720   -2.9480 o         1 MOL     -0.583181
      4 H1         -0.3000    3.8230   -5.3990 hc        1 MOL      0.105436
      5 H2          0.8530    2.6180   -6.0200 hc        1 MOL      0.105436
      6 H3         -0.7880    2.1180   -5.5430 hc        1 MOL      0.105436
      7 N1          1.7180    1.8970   -3.7130 n         1 MOL     -0.750047
      8 C3          2.3840    1.6960   -2.3670 c3        1 MOL      0.523477
      9 C4          2.9120    3.0430   -1.7550 c         1 MOL      0.348696
     10 O2          3.8130    3.6330   -2.2840 o         1 MOL     -0.555337
     11 C5          3.3980    0.5720   -2.4040 c3        1 MOL     -0.495780
     12 C6          4.1310    0.2530   -1.1180 c         1 MOL      1.006877
     13 O3          5.3170   -0.1520   -1.0940 o         1 MOL     -0.725435
     14 O4          3.5310    0.5280   -0.1170 o         1 MOL     -0.725435
     15 H4          2.2110    1.6730   -4.5660 hn        1 MOL      0.351114
     16 H5          1.7000    1.3140   -1.6080 h1        1 MOL     -0.045843
     17 H6          4.1180    0.9460   -3.1400 hc        1 MOL      0.065422
     18 H7          2.8140   -0.2960   -2.6990 hc        1 MOL      0.065422
     19 N2          2.4020    3.5570   -0.6210 n         1 MOL     -0.104068
     20 C7          2.6730    4.9840   -0.1100 c3        1 MOL     -0.111803
     21 C8          3.4050    5.1110    1.2400 c         1 MOL      0.495479
     22 O5          3.7960    6.2280    1.6380 o         1 MOL     -0.558314
     23 C9          1.2730    5.7750   -0.0690 c3        1 MOL      0.005743
     24 C10         0.3740    5.8250   -1.3490 c3        1 MOL      0.071252
     25 C11         1.1650    6.0180   -2.6480 c3        1 MOL     -0.177526
     26 C12         1.9670    7.3750   -2.6560 c3        1 MOL      0.174425
     27 N3          2.5940    7.6530   -3.9520 n4        1 MOL     -0.427115
     28 H8          1.7710    2.9700   -0.1070 hn        1 MOL      0.130916
     29 H9          3.3840    5.5270   -0.7370 h1        1 MOL      0.092969
     30 H10         1.6090    6.7740    0.2080 hc        1 MOL      0.012141
     31 H11         0.6800    5.4200    0.7650 hc        1 MOL      0.012141
     32 H12        -0.3730    6.6170   -1.2300 hc        1 MOL      0.016119
     33 H13        -0.2010    4.9120   -1.4310 hc        1 MOL      0.016119
     34 H14         0.5750    5.8270   -3.5500 hc        1 MOL      0.050465
     35 H15         1.8580    5.1750   -2.6580 hc        1 MOL      0.050465
     36 H16         2.6170    7.3940   -1.7760 hx        1 MOL      0.035322
     37 H17         1.1940    8.1100   -2.4630 hx        1 MOL      0.035322
     38 H18         1.9630    7.8390   -4.7250 hn        1 MOL      0.342872
     39 H19         3.2260    8.4240   -3.7850 hn        1 MOL      0.342872
     40 H20         3.2520    6.9340   -4.2410 hn        1 MOL      0.342872
     41 N4          3.6220    3.9760    1.9070 n         1 MOL     -0.314752
     42 C13         4.3670    3.6750    3.1020 c3        1 MOL      0.111892
     43 C14         5.5670    2.7630    2.9400 c         1 MOL      0.468430
     44 O6          6.5020    2.9750    3.7280 o         1 MOL     -0.537492
     45 C15         3.4800    3.1590    4.2550 c3        1 MOL     -0.240767
     46 C16         2.4810    2.0300    3.8380 c         1 MOL      0.763643
     47 O7          2.7760    1.2690    2.8530 o         1 MOL     -0.685618
     48 O8          1.4900    1.8220    4.5890 o         1 MOL     -0.685618
     49 H21         3.2260    3.1760    1.4260 hn        1 MOL      0.183520
     50 H22         4.8790    4.6210    3.3130 h1        1 MOL      0.062372
     51 H23         2.9180    4.0500    4.5500 hc        1 MOL      0.060343
     52 H24         4.0190    2.8920    5.1690 hc        1 MOL      0.060343
     53 N5          5.6440    1.9190    1.8810 n         1 MOL     -0.090990
     54 C17         6.9030    1.4150    1.3860 c3        1 MOL     -0.287275
     55 C18         7.1670    0.0260    1.9580 c         1 MOL      0.690024
     56 O9          8.0020   -0.1630    2.8760 o         1 MOL     -0.581455
     57 H25         4.7860    1.6480    1.4280 hn        1 MOL      0.085086
     58 H26         7.6560    2.1510    1.6900 h1        1 MOL      0.096838
     59 H27         6.7800    1.3160    0.3150 h1        1 MOL      0.096838
     60 N6          6.4840   -0.9620    1.4480 n         1 MOL     -0.534095
     61 C19         6.6460   -2.4310    1.8700 c3        1 MOL      0.034401
     62 C20         6.5760   -3.3560    0.6200 c         1 MOL      0.386917
     63 O10         6.7040   -4.5860    0.6950 o         1 MOL     -0.507093
     64 C21         5.5690   -2.7050    2.9460 c3        1 MOL     -0.242620
     65 C22         4.1360   -2.3810    2.3730 c         1 MOL      0.834103
     66 O11         3.8610   -2.4070    1.1620 o         1 MOL     -0.797600
     67 O12         3.3120   -1.9280    3.1570 o         1 MOL     -0.797600
     68 H28         5.9150   -0.7260    0.6460 hn        1 MOL      0.315016
     69 H29         7.6120   -2.4700    2.3700 h1        1 MOL      0.105814
     70 H30         5.7520   -2.1100    3.8420 hc        1 MOL      0.092910
     71 H31         5.5780   -3.7650    3.1860 hc        1 MOL      0.092910
     72 N7          6.5140   -2.7850   -0.5680 n         1 MOL     -0.239454
     73 C23         6.4440   -3.6830   -1.8100 c3        1 MOL     -0.124509
     74 C24         5.1360   -4.4780   -1.9160 c         1 MOL      0.558987
     75 O13         5.0470   -5.5280   -2.5640 o         1 MOL     -0.569349
     76 H32         6.4410   -1.7820   -0.6270 hn        1 MOL      0.225224
     77 H33         7.2390   -4.4320   -1.8770 h1        1 MOL      0.089305
     78 H34         6.4090   -3.0200   -2.6760 h1        1 MOL      0.089305
     79 N8          4.0450   -3.9360   -1.3680 n         1 MOL     -0.308205
     80 C25         2.7390   -4.6170   -1.3310 c3        1 MOL     -0.143460
     81 C26         1.7290   -3.4800   -1.3660 c         1 MOL      0.707550
     82 O14         1.9710   -2.3550   -0.9250 o         1 MOL     -0.685378
     83 C27         2.5040   -5.5230   -0.0940 c3        1 MOL      0.532512
     84 C28         3.1680   -6.9250   -0.3320 c3        1 MOL     -0.495550
     85 O15         3.1170   -5.0360    1.0850 oh        1 MOL     -0.669309
     86 H35         4.0390   -2.9720   -1.0560 hn        1 MOL      0.239075
     87 H36         2.5300   -5.1950   -2.2320 h1        1 MOL      0.075134
     88 H37         1.4310   -5.6700   -0.0220 h1        1 MOL     -0.030534
     89 H38         3.6180   -4.2390    0.8860 ho        1 MOL      0.461319
     90 H39         2.6190   -7.4400   -1.1280 hc        1 MOL      0.122427
     91 H40         4.2510   -6.8730   -0.4030 hc        1 MOL      0.122427
     92 H41         2.8420   -7.5390    0.5050 hc        1 MOL      0.122427
     93 N9          0.4980   -3.8250   -1.7740 n         1 MOL     -0.656762
     94 C29        -0.6350   -2.8100   -1.9350 c3        1 MOL      0.192457
     95 C30        -1.8760   -3.3060   -1.2030 c         1 MOL      0.452701
     96 O16        -2.3290   -4.4450   -1.5200 o         1 MOL     -0.563654
     97 C31        -0.9430   -2.5560   -3.4590 c3        1 MOL      0.077867
     98 C32         0.2440   -2.0170   -4.2340 c3        1 MOL      0.002092
     99 C33        -2.0650   -1.5170   -3.5760 c3        1 MOL     -0.263182
    100 C34         0.2310   -2.1700   -5.8070 c3        1 MOL     -0.276445
    101 H42         0.3770   -4.7440   -2.1790 hn        1 MOL      0.308324
    102 H43        -0.3430   -1.8650   -1.4890 h1        1 MOL      0.056308
    103 H44        -1.3960   -3.4870   -3.8090 hc        1 MOL      0.021465
    104 H45         1.1530   -2.4600   -3.8310 hc        1 MOL      0.050031
    105 H46         0.3980   -0.9750   -3.9830 hc        1 MOL      0.050031
    106 H47        -2.9750   -2.0650   -3.3260 hc        1 MOL      0.051455
    107 H48        -1.9040   -0.6790   -2.8890 hc        1 MOL      0.051455
    108 H49        -2.0910   -1.0880   -4.5770 hc        1 MOL      0.051455
    109 H50        -0.6820   -1.7290   -6.2230 hc        1 MOL      0.068339
    110 H51         1.0590   -1.5240   -6.1070 hc        1 MOL      0.068339
    111 H52         0.3470   -3.1760   -6.1870 hc        1 MOL      0.068339
    112 N10        -2.4580   -2.4930   -0.3710 n         1 MOL     -0.142246
    113 C35        -3.7920   -2.6730    0.1870 c3        1 MOL      0.071973
    114 C36        -5.0990   -2.1750   -0.5460 c         1 MOL      0.245310
    115 O17        -4.9690   -1.4980   -1.5310 o         1 MOL     -0.273366
    116 C37        -3.8920   -2.1350    1.6870 c3        1 MOL      0.099589
    117 C38        -2.6340   -2.4700    2.5760 c3        1 MOL     -0.261066
    118 O18        -3.9060   -0.7540    1.6640 oh        1 MOL     -0.427650
    119 H53        -1.9110   -1.6720   -0.1370 hn        1 MOL      0.145285
    120 H54        -3.9720   -3.7390    0.3170 h1        1 MOL      0.033511
    121 H55        -4.8030   -2.5560    2.1140 h1        1 MOL      0.004407
    122 H56        -3.6710   -0.4180    2.5330 ho        1 MOL      0.382589
    123 H57        -1.7130   -2.1750    2.0750 hc        1 MOL      0.077865
    124 H58        -2.7820   -1.9780    3.5360 hc        1 MOL      0.077865
    125 H59        -2.6420   -3.5450    2.7940 hc        1 MOL      0.077865
    126 N11        -6.2600   -2.5520   -0.0380 n         1 MOL     -0.161729
    127 C39        -7.5320   -2.1190   -0.5970 c3        1 MOL     -0.186302
    128 C40        -7.7310   -0.6180   -0.3720 c         1 MOL      0.439619
    129 O19        -8.1780    0.0770   -1.3020 o         1 MOL     -0.481073
    130 C41        -8.7600   -2.7690   -0.0240 c3        1 MOL      0.300212
    131 C42        -8.8800   -4.2640   -0.2620 c3        1 MOL     -0.392088
    132 O20        -8.7450   -2.5070    1.3700 oh        1 MOL     -0.643666
    133 H60        -6.2720   -3.2750    0.6820 hn        1 MOL      0.247336
    134 H61        -7.4570   -2.2880   -1.6760 h1        1 MOL      0.145891
    135 H62        -9.6020   -2.2320   -0.4530 h1        1 MOL      0.050107
    136 H63        -9.5830   -2.7940    1.7280 ho        1 MOL      0.415482
    137 H64        -8.8460   -4.5180   -1.3230 hc        1 MOL      0.113259
    138 H65        -8.1000   -4.8360    0.2230 hc        1 MOL      0.113259
    139 H66        -9.8110   -4.5550    0.2260 hc        1 MOL      0.113259
    140 N12        -7.1880   -0.0620    0.7530 n         1 MOL     -0.423522
    141 C43        -7.0460    1.4460    0.9140 c3        1 MOL      0.176446
    142 C44        -6.0470    2.1210   -0.0080 c         1 MOL      0.362413
    143 O21        -6.4240    3.0980   -0.6460 o         1 MOL     -0.503807
    144 C45        -6.6830    1.5850    2.3670 c3        1 MOL     -0.329156
    145 C46        -7.9040    1.2480    3.3140 c3        1 MOL      0.299546
    146 C47        -7.4020    1.3600    4.7920 c3        1 MOL     -0.010668
    147 C48        -8.4960    0.8840    5.7750 c3        1 MOL     -0.083080
    148 N13        -9.7870    1.5400    5.5230 n4        1 MOL     -0.284545
    149 H67        -6.7160   -0.7430    1.3200 hn        1 MOL      0.251428
    150 H68        -7.9760    1.9780    0.7480 h1        1 MOL      0.069676
    151 H69        -6.3700    2.6330    2.4710 hc        1 MOL      0.066751
    152 H70        -5.8350    0.9510    2.6170 hc        1 MOL      0.066751
    153 H71        -8.3180    0.2560    3.1520 hc        1 MOL     -0.061383
    154 H72        -8.7530    1.9280    3.1870 hc        1 MOL     -0.061383
    155 H73        -7.1920    2.3970    5.0530 hc        1 MOL      0.044086
    156 H74        -6.5330    0.7410    4.9880 hc        1 MOL      0.044086
    157 H75        -8.2120    1.2430    6.7680 hx        1 MOL      0.104718
    158 H76        -8.7000   -0.1900    5.6730 hx        1 MOL      0.104718
    159 H77        -9.6450    2.4860    5.2010 hn        1 MOL      0.302382
    160 H78       -10.3270    1.0120    4.8490 hn        1 MOL      0.302382
    161 H79       -10.2690    1.6070    6.4150 hn        1 MOL      0.302382
    162 N14        -4.8370    1.6290   -0.2530 n         1 MOL     -0.020802
    163 C49        -3.9250    2.1630   -1.2130 c3        1 MOL     -0.181796
    164 C50        -4.4860    2.0940   -2.6800 c         1 MOL      0.491123
    165 O22        -4.4910    3.1050   -3.3520 o         1 MOL     -0.551548
    166 C51        -2.5750    1.4160   -1.1400 c3        1 MOL      0.038836
    167 C52        -1.7130    1.8900    0.0550 c3        1 MOL     -0.124259
    168 C53        -0.4720    1.0530    0.3830 c         1 MOL      0.516742
    169 O23        -0.4350   -0.2020    0.2160 o         1 MOL     -0.604311
    170 O24         0.5150    1.6050    0.8950 o         1 MOL     -0.604311
    171 H80        -4.5350    0.8590    0.3340 hn        1 MOL      0.054019
    172 H81        -3.7570    3.2150   -0.9760 h1        1 MOL      0.092006
    173 H82        -2.0270    1.5840   -2.0650 hc        1 MOL      0.063401
    174 H83        -2.7450    0.3430   -1.0400 hc        1 MOL      0.063401
    175 H84        -2.3600    2.0900    0.9070 hc        1 MOL      0.048894
    176 H85        -1.3970    2.9090   -0.1560 hc        1 MOL      0.048894
    177 N15        -4.8810    0.8810   -3.1050 n         1 MOL     -0.046620
    178 C54        -5.4570    0.6380   -4.4250 c3        1 MOL     -0.217605
    179 H86        -5.9390    1.5470   -4.7830 h1        1 MOL      0.087058
    180 H87        -4.6670    0.3490   -5.1190 h1        1 MOL      0.087058
    181 H88        -6.1940   -0.1620   -4.3590 h1        1 MOL      0.087058
    182 H89        -4.7560    0.1380   -2.4360 hn        1 MOL      0.036123
    183 Ca1         1.8660   -0.7330    1.3730 Ca        1 MOL      1.737034
    184 O25         0.2380   -0.2410    3.6010 oh        1 MOL     -0.858635
    185 H90        -0.1100   -0.7630    4.3210 ho        1 MOL      0.392540
    186 H91         0.8260    0.3890    4.0110 ho        1 MOL      0.392540
    187 O26         1.0210   -3.4800    1.8550 oh        1 MOL     -0.858635
    188 H92         1.6510   -4.1850    1.7570 ho        1 MOL      0.392540
    189 H93         0.6490   -3.6090    2.7260 ho        1 MOL      0.392540
@<TRIPOS>BOND
     1    1    2 1   
     2    1    4 1   
     3    1    5 1   
     4    1    6 1   
     5    2    3 2   
     6    2    7 1   
     7    7    8 1   
     8    7   15 1   
     9    8    9 1   
    10    8   11 1   
    11    8   16 1   
    12    9   10 2   
    13    9   19 1   
    14   11   12 1   
    15   11   17 1   
    16   11   18 1   
    17   12   13 1   
    18   12   14 1   
    19   19   20 1   
    20   19   28 1   
    21   20   21 1   
    22   20   23 1   
    23   20   29 1   
    24   21   22 2   
    25   21   41 1   
    26   23   24 1   
    27   23   30 1   
    28   23   31 1   
    29   24   25 1   
    30   24   32 1   
    31   24   33 1   
    32   25   26 1   
    33   25   34 1   
    34   25   35 1   
    35   26   27 1   
    36   26   36 1   
    37   26   37 1   
    38   27   38 1   
    39   27   39 1   
    40   27   40 1   
    41   41   42 1   
    42   41   49 1   
    43   42   43 1   
    44   42   45 1   
    45   42   50 1   
    46   43   44 2   
    47   43   53 1   
    48   45   46 1   
    49   45   51 1   
    50   45   52 1   
    51   46   47 1   
    52   46   48 1   
    53   53   54 1   
    54   53   57 1   
    55   54   55 1   
    56   54   58 1   
    57   54   59 1   
    58   55   56 2   
    59   55   60 1   
    60   60   61 1   
    61   60   68 1   
    62   61   62 1   
    63   61   64 1   
    64   61   69 1   
    65   62   63 2   
    66   62   72 1   
    67   64   65 1   
    68   64   70 1   
    69   64   71 1   
    70   65   66 1   
    71   65   67 1   
    72   72   73 1   
    73   72   76 1   
    74   73   74 1   
    75   73   77 1   
    76   73   78 1   
    77   74   75 2   
    78   74   79 1   
    79   79   80 1   
    80   79   86 1   
    81   80   81 1   
    82   80   83 1   
    83   80   87 1   
    84   81   82 2   
    85   81   93 1   
    86   83   84 1   
    87   83   85 1   
    88   83   88 1   
    89   84   90 1   
    90   84   91 1   
    91   84   92 1   
    92   85   89 1   
    93   93   94 1   
    94   93  101 1   
    95   94   95 1   
    96   94   97 1   
    97   94  102 1   
    98   95   96 2   
    99   95  112 1   
   100   97   98 1   
   101   97   99 1   
   102   97  103 1   
   103   98  100 1   
   104   98  104 1   
   105   98  105 1   
   106   99  106 1   
   107   99  107 1   
   108   99  108 1   
   109  100  109 1   
   110  100  110 1   
   111  100  111 1   
   112  112  113 1   
   113  112  119 1   
   114  113  114 1   
   115  113  116 1   
   116  113  120 1   
   117  114  115 2   
   118  114  126 1   
   119  116  117 1   
   120  116  118 1   
   121  116  121 1   
   122  117  123 1   
   123  117  124 1   
   124  117  125 1   
   125  118  122 1   
   126  126  127 1   
   127  126  133 1   
   128  127  128 1   
   129  127  130 1   
   130  127  134 1   
   131  128  129 2   
   132  128  140 1   
   133  130  131 1   
   134  130  132 1   
   135  130  135 1   
   136  131  137 1   
   137  131  138 1   
   138  131  139 1   
   139  132  136 1   
   140  140  141 1   
   141  140  149 1   
   142  141  142 1   
   143  141  144 1   
   144  141  150 1   
   145  142  143 2   
   146  142  162 1   
   147  144  145 1   
   148  144  151 1   
   149  144  152 1   
   150  145  146 1   
   151  145  153 1   
   152  145  154 1   
   153  146  147 1   
   154  146  155 1   
   155  146  156 1   
   156  147  148 1   
   157  147  157 1   
   158  147  158 1   
   159  148  159 1   
   160  148  160 1   
   161  148  161 1   
   162  162  163 1   
   163  162  171 1   
   164  163  164 1   
   165  163  166 1   
   166  163  172 1   
   167  164  165 2   
   168  164  177 1   
   169  166  167 1   
   170  166  173 1   
   171  166  174 1   
   172  167  168 1   
   173  167  175 1   
   174  167  176 1   
   175  168  169 1   
   176  168  170 1   
   177  177  178 1   
   178  177  182 1   
   179  178  179 1   
   180  178  180 1   
   181  178  181 1   
   182  184  185 1   
   183  184  186 1   
   184  187  188 1   
   185  187  189 1   
@<TRIPOS>SUBSTRUCTURE
     1 MOL         1 TEMP              0 ****  ****    0 ROOT
