@<TRIPOS>MOLECULE
MOL
  179   176     1     0     0
SMALL
resp


@<TRIPOS>ATOM
      1 C1          2.5510    2.9380    4.0220 c3        1 MOL     -0.397355
      2 C2          1.6230    2.8860    2.8200 c         1 MOL      0.705134
      3 O1          2.1950    3.0790    1.7130 o         1 MOL     -0.571069
      4 H1          3.3690    3.6300    3.8210 hc        1 MOL      0.095894
      5 H2          1.9950    3.2770    4.8970 hc        1 MOL      0.095894
      6 H3          2.9560    1.9440    4.2120 hc        1 MOL      0.095894
      7 N1          0.3400    2.7050    2.9950 n         1 MOL     -0.637634
      8 C3         -0.6500    2.5290    1.9160 c3        1 MOL      0.404960
      9 C4         -1.0960    3.9240    1.3420 c         1 MOL      0.316115
     10 O2         -2.2040    4.3950    1.5610 o         1 MOL     -0.440474
     11 C5         -1.8510    1.7690    2.6360 c3        1 MOL     -0.173125
     12 C6         -2.9410    1.4840    1.5460 c         1 MOL      0.493764
     13 O3         -4.1250    1.3750    1.8940 o         1 MOL     -0.576181
     14 O4         -2.5760    1.3860    0.3040 o         1 MOL     -0.576181
     15 H4          0.0060    2.6960    3.9470 hn        1 MOL      0.322480
     16 H5         -0.2570    1.8930    1.1250 h1        1 MOL     -0.054739
     17 H6         -2.3470    2.3560    3.4040 hc        1 MOL      0.045549
     18 H7         -1.5400    0.8210    3.0580 hc        1 MOL      0.045549
     19 N2         -0.0710    4.6350    0.7970 n         1 MOL     -0.272206
     20 C7         -0.1580    6.0390    0.4100 c3        1 MOL     -0.101988
     21 C8         -1.0720    6.2320   -0.8200 c         1 MOL      0.377476
     22 O5         -1.5590    7.3220   -1.0350 o         1 MOL     -0.524011
     23 C9          1.2280    6.5650    0.1950 c3        1 MOL      0.070841
     24 C10         2.1650    6.6650    1.3260 c3        1 MOL     -0.024761
     25 C11         3.2920    7.6760    1.0530 c3        1 MOL      0.002860
     26 C12         4.4040    7.8080    2.1060 c3        1 MOL     -0.062425
     27 N3          5.2990    6.6240    2.1110 n4        1 MOL     -0.392014
     28 H8          0.7800    4.1010    0.6560 hn        1 MOL      0.267692
     29 H9         -0.6060    6.5150    1.2850 h1        1 MOL      0.134447
     30 H10         1.2150    7.5690   -0.2070 hc        1 MOL      0.010449
     31 H11         1.6110    5.9770   -0.6410 hc        1 MOL      0.010449
     32 H12         2.6170    5.7120    1.6240 hc        1 MOL     -0.009295
     33 H13         1.5290    6.8740    2.1890 hc        1 MOL     -0.009295
     34 H14         2.9340    8.6770    0.7750 hc        1 MOL      0.047028
     35 H15         3.7740    7.3780    0.1150 hc        1 MOL      0.047028
     36 H16         3.9050    7.7960    3.0720 hx        1 MOL      0.113631
     37 H17         4.8270    8.8080    2.0650 hx        1 MOL      0.113631
     38 H18         5.9090    6.6750    2.9220 hn        1 MOL      0.348538
     39 H19         4.7460    5.7690    2.0790 hn        1 MOL      0.348538
     40 H20         5.8190    6.5880    1.2510 hn        1 MOL      0.348538
     41 N4         -1.3800    5.2100   -1.5920 n         1 MOL     -0.122107
     42 C13        -2.4280    5.0210   -2.5640 c3        1 MOL     -0.058023
     43 C14        -3.8480    4.8410   -1.9550 c         1 MOL      0.449714
     44 O6         -4.7980    5.0220   -2.7270 o         1 MOL     -0.545467
     45 C15        -2.0310    3.8840   -3.5900 c3        1 MOL     -0.282947
     46 C16        -1.7330    2.6330   -2.8320 c         1 MOL      0.746473
     47 O7         -0.6980    2.5470   -2.1170 o         1 MOL     -0.755137
     48 O8         -2.5050    1.5960   -2.9080 o         1 MOL     -0.755137
     49 H21        -0.7960    4.3850   -1.5510 hn        1 MOL      0.160254
     50 H22        -2.4450    5.9690   -3.1180 h1        1 MOL      0.092378
     51 H23        -1.1480    4.1590   -4.1670 hc        1 MOL      0.100197
     52 H24        -2.7900    3.5670   -4.3160 hc        1 MOL      0.100197
     53 N5         -3.9340    4.4080   -0.7550 n         1 MOL     -0.049043
     54 C17        -5.2080    4.1160   -0.0680 c3        1 MOL     -0.198433
     55 C18        -6.0050    2.8890   -0.7230 c         1 MOL      0.467614
     56 O9         -7.2570    3.0010   -0.9070 o         1 MOL     -0.549127
     57 H25        -3.1060    4.1840   -0.2220 hn        1 MOL      0.079035
     58 H26        -5.9550    4.8970   -0.1480 h1        1 MOL      0.115883
     59 H27        -5.1610    3.8760    0.9990 h1        1 MOL      0.115883
     60 N6         -5.3570    1.6980   -1.0090 n         1 MOL     -0.082431
     61 C19        -6.1510    0.5830   -1.6480 c3        1 MOL     -0.217570
     62 C20        -6.5460   -0.4580   -0.6100 c         1 MOL      0.241979
     63 O10        -7.2820   -1.4630   -1.0030 o         1 MOL     -0.451735
     64 C21        -5.4030    0.0330   -2.8860 c3        1 MOL     -0.056119
     65 C22        -4.2930   -0.9720   -2.6440 c         1 MOL      0.458264
     66 N7         -4.0680   -1.8570   -3.5700 n         1 MOL     -0.577719
     67 O11        -3.5570   -1.0060   -1.6250 o         1 MOL     -0.408435
     68 H28        -4.3540    1.7910   -1.0590 hn        1 MOL      0.117918
     69 H29        -7.0530    1.0180   -2.0730 h1        1 MOL      0.185305
     70 H30        -5.0310    0.9060   -3.4250 hc        1 MOL      0.068944
     71 H31        -6.1370   -0.3540   -3.5990 hc        1 MOL      0.068944
     72 H32        -4.4770   -1.7580   -4.4810 hn        1 MOL      0.300144
     73 H33        -3.3120   -2.4950   -3.3570 hn        1 MOL      0.300144
     74 N8         -6.1600   -0.2300    0.6720 n         1 MOL      0.005017
     75 C23        -6.4180   -1.1660    1.7710 c3        1 MOL     -0.456293
     76 C24        -5.3290   -2.1810    1.9860 c         1 MOL      0.821655
     77 O12        -5.5620   -3.0740    2.7950 o         1 MOL     -0.599517
     78 H34        -5.5720    0.5730    0.8290 hn        1 MOL      0.136719
     79 H35        -7.3930   -1.6470    1.6340 h1        1 MOL      0.170144
     80 H36        -6.4270   -0.4770    2.6070 h1        1 MOL      0.170144
     81 N9         -4.1430   -2.0180    1.4360 n         1 MOL     -0.631694
     82 C25        -3.1140   -3.1230    1.4890 c3        1 MOL      0.019740
     83 C26        -1.7220   -2.5240    1.4430 c         1 MOL      0.613215
     84 O13        -1.4840   -1.4350    0.7920 o         1 MOL     -0.689857
     85 C27        -3.3710   -4.1250    0.3080 c3        1 MOL     -0.024802
     86 C28        -4.6720   -4.8360    0.4320 ca        1 MOL      0.146825
     87 C29        -5.7650   -4.4680   -0.3880 ca        1 MOL     -0.245695
     88 C30        -4.7300   -5.9160    1.2330 ca        1 MOL     -0.245695
     89 C31        -7.0100   -5.1140   -0.2310 ca        1 MOL     -0.170798
     90 C32        -5.9770   -6.5980    1.4370 ca        1 MOL     -0.170798
     91 C33        -7.0900   -6.1930    0.6300 ca        1 MOL      0.252565
     92 O14        -8.3140   -6.8200    0.7540 oh        1 MOL     -0.440082
     93 H37        -3.9490   -1.1740    0.9270 hn        1 MOL      0.404929
     94 H38        -3.2410   -3.6720    2.4290 h1        1 MOL      0.081904
     95 H39        -2.5910   -4.8810    0.1980 hc        1 MOL      0.007812
     96 H40        -3.3190   -3.6040   -0.6530 hc        1 MOL      0.007812
     97 H41        -5.5630   -3.6130   -1.0120 ha        1 MOL      0.127901
     98 H42        -3.8720   -6.0610    1.8640 ha        1 MOL      0.127901
     99 H43        -7.9320   -4.8050   -0.7080 ha        1 MOL      0.138114
    100 H44        -6.0320   -7.3950    2.1680 ha        1 MOL      0.138114
    101 H45        -8.2050   -7.4880    1.4350 ho        1 MOL      0.321459
    102 N10        -0.7180   -3.1930    2.0770 n         1 MOL     -0.450291
    103 C34         0.6990   -2.8460    1.9520 c3        1 MOL     -0.014711
    104 C35         1.4760   -3.9740    1.2030 c         1 MOL      0.321755
    105 O15         1.5220   -5.1690    1.5180 o         1 MOL     -0.517671
    106 C36         1.3500   -2.6190    3.3310 c3        1 MOL      0.261659
    107 C37         0.4690   -1.6740    4.1280 c3        1 MOL      0.078349
    108 C38         2.7860   -2.1560    3.1470 c3        1 MOL     -0.245992
    109 C39         0.9380   -1.4920    5.6100 c3        1 MOL     -0.251973
    110 H46        -1.0570   -3.9050    2.7060 hn        1 MOL      0.278063
    111 H47         0.7470   -1.9280    1.3790 h1        1 MOL      0.101183
    112 H48         1.3880   -3.5110    3.9520 hc        1 MOL     -0.021897
    113 H49        -0.5380   -2.0590    4.2850 hc        1 MOL      0.002014
    114 H50         0.4630   -0.7460    3.5520 hc        1 MOL      0.002014
    115 H51         3.4720   -2.7910    2.5780 hc        1 MOL      0.049370
    116 H52         2.8340   -1.1330    2.7750 hc        1 MOL      0.049370
    117 H53         3.2000   -2.1360    4.1530 hc        1 MOL      0.049370
    118 H54         0.2640   -0.8600    6.1740 hc        1 MOL      0.057844
    119 H55         0.9620   -2.4860    6.0690 hc        1 MOL      0.057844
    120 H56         1.9230   -1.0300    5.6660 hc        1 MOL      0.057844
    121 N11         2.1830   -3.5400    0.1190 n         1 MOL      0.001003
    122 C40         3.0690   -4.4040   -0.7190 c3        1 MOL      0.040174
    123 C41         4.5910   -4.0650   -0.4210 c         1 MOL      0.480106
    124 O16         4.9500   -3.1180    0.2630 o         1 MOL     -0.444043
    125 C42         2.5750   -4.4770   -2.1360 c3        1 MOL      0.089857
    126 O17         2.2660   -3.1980   -2.6690 oh        1 MOL     -0.546562
    127 H57         2.0940   -2.5730   -0.1520 hn        1 MOL      0.018121
    128 H58         2.9250   -5.4180   -0.3540 h1        1 MOL      0.032100
    129 H59         1.7030   -5.1280   -2.1800 h1        1 MOL      0.039984
    130 H60         3.3810   -4.8670   -2.7600 h1        1 MOL      0.039984
    131 H61         1.5720   -2.7860   -2.1560 ho        1 MOL      0.310762
    132 N12         5.4860   -4.8310   -1.0510 n         1 MOL     -0.505398
    133 C43         6.9420   -4.7390   -0.8480 c3        1 MOL      0.245893
    134 C44         7.6630   -3.3690   -1.0310 c         1 MOL      0.503358
    135 O18         8.2410   -2.9260   -0.0820 o         1 MOL     -0.540076
    136 C45         7.5700   -5.7500   -1.7810 c3        1 MOL     -0.190367
    137 H62         5.1370   -5.4720   -1.7420 hn        1 MOL      0.273637
    138 H63         7.1850   -5.0310    0.1690 h1        1 MOL      0.043425
    139 H64         7.3800   -5.3920   -2.7910 hc        1 MOL      0.047444
    140 H65         8.6520   -5.7570   -1.6360 hc        1 MOL      0.047444
    141 H66         7.1710   -6.7630   -1.7150 hc        1 MOL      0.047444
    142 N13         7.5900   -2.7250   -2.1570 n         1 MOL     -0.362216
    143 C46         8.3750   -1.5190   -2.4350 c3        1 MOL      0.063005
    144 C47         7.7390   -0.2430   -1.7980 c         1 MOL      0.485409
    145 O19         8.4590    0.6420   -1.4120 o         1 MOL     -0.534796
    146 C48         8.4050   -1.2480   -3.9620 c3        1 MOL     -0.266891
    147 H67         7.0330   -3.0350   -2.9410 hn        1 MOL      0.272714
    148 H68         9.4070   -1.5380   -2.0890 h1        1 MOL      0.101142
    149 H69         8.7100   -2.1560   -4.4820 hc        1 MOL      0.080004
    150 H70         7.4420   -0.8530   -4.2950 hc        1 MOL      0.080004
    151 H71         9.0690   -0.3990   -4.1460 hc        1 MOL      0.080004
    152 N14         6.4340   -0.1850   -1.4930 n         1 MOL     -0.258587
    153 C49         5.8480    0.9030   -0.6400 c3        1 MOL     -0.271115
    154 C50         6.2960    0.7980    0.8130 c         1 MOL      0.571923
    155 O20         6.3710    1.8310    1.4870 o         1 MOL     -0.604404
    156 C51         4.3560    0.9670   -0.6760 c3        1 MOL      0.009684
    157 C52         3.4510   -0.3500   -0.4170 c3        1 MOL     -0.076085
    158 C53         1.9460   -0.1310   -0.5270 c         1 MOL      0.699880
    159 O21         1.2850   -1.1080   -0.8990 o         1 MOL     -0.674455
    160 O22         1.3540    0.9890   -0.3730 o         1 MOL     -0.674455
    161 H72         5.8450   -0.9790   -1.7110 hn        1 MOL      0.172663
    162 H73         6.1380    1.8510   -1.0920 h1        1 MOL      0.173594
    163 H74         4.0670    1.3490   -1.6550 hc        1 MOL      0.025627
    164 H75         3.9520    1.8130   -0.1280 hc        1 MOL      0.025627
    165 H76         3.6200   -0.6320    0.6250 hc        1 MOL      0.018648
    166 H77         3.8900   -1.1410   -1.0170 hc        1 MOL      0.018648
    167 N15         6.6820   -0.3900    1.3090 n         1 MOL     -0.091456
    168 C54         7.2860   -0.6070    2.6060 c3        1 MOL     -0.160857
    169 H78         8.0810    0.1210    2.7620 h1        1 MOL      0.076337
    170 H79         6.5300   -0.4930    3.3830 h1        1 MOL      0.076337
    171 H80         7.7030   -1.6130    2.6490 h1        1 MOL      0.076337
    172 H81         6.5370   -1.2530    0.8060 hn        1 MOL      0.141667
    173 Ca1        -1.0390    0.1480   -1.2370 Ca        1 MOL      1.707951
    174 O23        -0.3770   -0.2140   -3.8590 oh        1 MOL     -0.793690
    175 H82         0.4660    0.1280   -4.1690 ho        1 MOL      0.397714
    176 H83        -0.9050   -0.2910   -4.6500 ho        1 MOL      0.397714
    177 O24        -1.2280   -2.4420   -2.1880 oh        1 MOL     -0.793690
    178 H84        -0.6680   -2.7620   -2.8920 ho        1 MOL      0.397714
    179 H85        -1.4740   -3.2290   -1.6990 ho        1 MOL      0.397714
@<TRIPOS>BOND
     1    1    2 1   
     2    1    4 1   
     3    1    5 1   
     4    1    6 1   
     5    2    3 2   
     6    2    7 1   
     7    7    8 1   
     8    7   15 1   
     9    8    9 1   
    10    8   11 1   
    11    8   16 1   
    12    9   10 2   
    13    9   19 1   
    14   11   12 1   
    15   11   17 1   
    16   11   18 1   
    17   12   13 1   
    18   12   14 1   
    19   19   20 1   
    20   19   28 1   
    21   20   21 1   
    22   20   23 1   
    23   20   29 1   
    24   21   22 2   
    25   21   41 1   
    26   23   24 1   
    27   23   30 1   
    28   23   31 1   
    29   24   25 1   
    30   24   32 1   
    31   24   33 1   
    32   25   26 1   
    33   25   34 1   
    34   25   35 1   
    35   26   27 1   
    36   26   36 1   
    37   26   37 1   
    38   27   38 1   
    39   27   39 1   
    40   27   40 1   
    41   41   42 1   
    42   41   49 1   
    43   42   43 1   
    44   42   45 1   
    45   42   50 1   
    46   43   44 2   
    47   43   53 1   
    48   45   46 1   
    49   45   51 1   
    50   45   52 1   
    51   46   47 1   
    52   46   48 1   
    53   53   54 1   
    54   53   57 1   
    55   54   55 1   
    56   54   58 1   
    57   54   59 1   
    58   55   56 2   
    59   55   60 1   
    60   60   61 1   
    61   60   68 1   
    62   61   62 1   
    63   61   64 1   
    64   61   69 1   
    65   62   63 2   
    66   62   74 1   
    67   64   65 1   
    68   64   70 1   
    69   64   71 1   
    70   65   66 1   
    71   65   67 2   
    72   66   72 1   
    73   66   73 1   
    74   74   75 1   
    75   74   78 1   
    76   75   76 1   
    77   75   79 1   
    78   75   80 1   
    79   76   77 2   
    80   76   81 1   
    81   81   82 1   
    82   81   93 1   
    83   82   83 1   
    84   82   85 1   
    85   82   94 1   
    86   83   84 2   
    87   83  102 1   
    88   85   86 1   
    89   85   95 1   
    90   85   96 1   
    91   86   87 ar  
    92   86   88 ar  
    93   87   89 ar  
    94   87   97 1   
    95   88   90 ar  
    96   88   98 1   
    97   89   91 ar  
    98   89   99 1   
    99   90   91 ar  
   100   90  100 1   
   101   91   92 1   
   102   92  101 1   
   103  102  103 1   
   104  102  110 1   
   105  103  104 1   
   106  103  106 1   
   107  103  111 1   
   108  104  105 2   
   109  104  121 1   
   110  106  107 1   
   111  106  108 1   
   112  106  112 1   
   113  107  109 1   
   114  107  113 1   
   115  107  114 1   
   116  108  115 1   
   117  108  116 1   
   118  108  117 1   
   119  109  118 1   
   120  109  119 1   
   121  109  120 1   
   122  121  122 1   
   123  121  127 1   
   124  122  123 1   
   125  122  125 1   
   126  122  128 1   
   127  123  124 2   
   128  123  132 1   
   129  125  126 1   
   130  125  129 1   
   131  125  130 1   
   132  126  131 1   
   133  132  133 1   
   134  132  137 1   
   135  133  134 1   
   136  133  136 1   
   137  133  138 1   
   138  134  135 2   
   139  134  142 1   
   140  136  139 1   
   141  136  140 1   
   142  136  141 1   
   143  142  143 1   
   144  142  147 1   
   145  143  144 1   
   146  143  146 1   
   147  143  148 1   
   148  144  145 2   
   149  144  152 1   
   150  146  149 1   
   151  146  150 1   
   152  146  151 1   
   153  152  153 1   
   154  152  161 1   
   155  153  154 1   
   156  153  156 1   
   157  153  162 1   
   158  154  155 2   
   159  154  167 1   
   160  156  157 1   
   161  156  163 1   
   162  156  164 1   
   163  157  158 1   
   164  157  165 1   
   165  157  166 1   
   166  158  159 1   
   167  158  160 1   
   168  167  168 1   
   169  167  172 1   
   170  168  169 1   
   171  168  170 1   
   172  168  171 1   
   173  174  175 1   
   174  174  176 1   
   175  177  178 1   
   176  177  179 1   
@<TRIPOS>SUBSTRUCTURE
     1 MOL         1 TEMP              0 ****  ****    0 ROOT
