@<TRIPOS>MOLECULE
MOL
  189   185     1     0     0
SMALL
resp


@<TRIPOS>ATOM
      1 C1          0.4870   -5.5200    5.0850 c3        1 MOL     -0.264511
      2 C2          1.1070   -4.6160    3.9710 c         1 MOL      0.710097
      3 O1          0.9120   -3.4040    4.0780 o         1 MOL     -0.629909
      4 H1          0.8410   -5.1890    6.0600 hc        1 MOL      0.061100
      5 H2         -0.5990   -5.4470    5.0490 hc        1 MOL      0.061100
      6 H3          0.7880   -6.5550    4.9210 hc        1 MOL      0.061100
      7 N1          1.7650   -5.1010    2.9890 n         1 MOL     -0.559780
      8 C3          2.3950   -4.2770    1.9250 c3        1 MOL      0.146236
      9 C4          2.3170   -5.1420    0.6490 c         1 MOL      0.581826
     10 O2          2.3480   -6.3550    0.6500 o         1 MOL     -0.580617
     11 C5          3.8350   -3.9480    2.3430 c3        1 MOL     -0.305673
     12 C6          4.5210   -2.9740    1.3720 c         1 MOL      0.766307
     13 O3          5.7700   -2.8200    1.4260 o         1 MOL     -0.701930
     14 O4          3.8600   -2.1960    0.6820 o         1 MOL     -0.701930
     15 H4          1.8690   -6.1080    2.9860 hn        1 MOL      0.302087
     16 H5          1.7850   -3.3920    1.7880 h1        1 MOL      0.106391
     17 H6          4.4140   -4.8680    2.3710 hc        1 MOL      0.071729
     18 H7          3.8460   -3.5870    3.3750 hc        1 MOL      0.071729
     19 N2          1.9370   -4.4480   -0.4690 n         1 MOL     -0.373624
     20 C7          1.6920   -5.0590   -1.7580 c3        1 MOL     -0.025555
     21 C8          2.9520   -4.7270   -2.6430 c         1 MOL      0.600716
     22 O5          3.4900   -5.5360   -3.3650 o         1 MOL     -0.586928
     23 C9          0.3040   -4.6470   -2.3000 c3        1 MOL      0.145698
     24 C10        -0.8020   -5.3300   -1.4490 c3        1 MOL     -0.065497
     25 C11         0.1200   -5.0340   -3.7560 c3        1 MOL     -0.236590
     26 C12        -2.2170   -4.8640   -1.6900 c3        1 MOL     -0.190764
     27 H8          1.7910   -3.4640   -0.3120 hn        1 MOL      0.135006
     28 H9          1.6090   -6.1380   -1.7120 h1        1 MOL      0.051389
     29 H10         0.1600   -3.5710   -2.3860 hc        1 MOL      0.048970
     30 H11        -0.5470   -5.2430   -0.3870 hc        1 MOL      0.030825
     31 H12        -0.8650   -6.4070   -1.5890 hc        1 MOL      0.030825
     32 H13         0.8180   -4.5900   -4.4630 hc        1 MOL      0.043304
     33 H14         0.2540   -6.1210   -3.8110 hc        1 MOL      0.043304
     34 H15        -0.8780   -4.8050   -4.1190 hc        1 MOL      0.043304
     35 H16        -2.7640   -5.7510   -1.3620 hc        1 MOL      0.075665
     36 H17        -2.4340   -4.0540   -0.9970 hc        1 MOL      0.075665
     37 H18        -2.4520   -4.5990   -2.7220 hc        1 MOL      0.075665
     38 N3          3.3820   -3.4690   -2.6210 n         1 MOL     -0.397982
     39 C13         3.9790   -2.7520   -3.6420 c3        1 MOL      0.054389
     40 C14         5.3720   -2.1590   -3.2220 c         1 MOL      0.392294
     41 O6          6.0950   -1.7190   -4.0970 o         1 MOL     -0.549733
     42 C15         3.0080   -1.6880   -4.2020 c3        1 MOL     -0.183670
     43 C16         2.5390   -0.7530   -3.0970 c         1 MOL      0.753294
     44 O7          3.2960   -0.6010   -2.0820 o         1 MOL     -0.713899
     45 O8          1.5780    0.0250   -3.2710 o         1 MOL     -0.713899
     46 H19         2.8370   -2.8970   -1.9960 hn        1 MOL      0.272404
     47 H20         4.2440   -3.4090   -4.4860 h1        1 MOL      0.072326
     48 H21         2.1730   -2.1440   -4.7170 hc        1 MOL      0.054322
     49 H22         3.5460   -1.1200   -4.9610 hc        1 MOL      0.054322
     50 N4          5.6690   -2.0520   -1.9180 n         1 MOL     -0.132822
     51 C17         7.0380   -1.5180   -1.4980 c3        1 MOL     -0.185287
     52 C18         7.4350   -0.0410   -1.7050 c         1 MOL      0.499289
     53 O9          8.6320    0.2690   -1.9150 o         1 MOL     -0.577346
     54 H23         4.9730   -2.3710   -1.2620 hn        1 MOL      0.117945
     55 H24         7.7980   -2.1200   -1.9940 h1        1 MOL      0.091909
     56 H25         6.9910   -1.6830   -0.4290 h1        1 MOL      0.091909
     57 N5          6.3910    0.8090   -1.7190 n         1 MOL     -0.207241
     58 C19         6.6080    2.2860   -1.7940 c3        1 MOL     -0.063228
     59 C20         6.8990    3.0300   -0.4570 c         1 MOL      0.392733
     60 O10         7.0950    4.2930   -0.5020 o         1 MOL     -0.509381
     61 C21         5.4300    3.0030   -2.5280 c3        1 MOL     -0.269651
     62 C22         4.0930    2.8030   -1.7470 c         1 MOL      0.662787
     63 O11         4.0430    2.1730   -0.6710 o         1 MOL     -0.637325
     64 O12         3.0260    3.4290   -2.1610 o         1 MOL     -0.637325
     65 H26         5.4530    0.4440   -1.7520 hn        1 MOL      0.258928
     66 H27         7.4540    2.4090   -2.4590 h1        1 MOL      0.124396
     67 H28         5.3970    2.4800   -3.4830 hc        1 MOL      0.098632
     68 H29         5.5950    4.0650   -2.6970 hc        1 MOL      0.098632
     69 N6          6.9600    2.3900    0.6840 n         1 MOL     -0.288025
     70 C23         6.8530    3.0450    1.9480 c3        1 MOL     -0.115770
     71 C24         5.5800    3.8590    2.3690 c         1 MOL      0.385616
     72 O13         5.6820    4.7320    3.2550 o         1 MOL     -0.568374
     73 H30         6.7030    1.4090    0.6430 hn        1 MOL      0.231572
     74 H31         7.6950    3.7310    2.0650 h1        1 MOL      0.095424
     75 H32         7.0150    2.2420    2.6740 h1        1 MOL      0.095424
     76 N7          4.4750    3.7770    1.6240 n         1 MOL     -0.043939
     77 C25         3.1870    4.4070    1.8680 c3        1 MOL      0.031507
     78 C26         2.1920    3.3010    2.0880 c         1 MOL      0.429369
     79 O14         2.4700    2.0920    1.9940 o         1 MOL     -0.559946
     80 C27         2.7580    5.3810    0.7450 c3        1 MOL      0.123706
     81 C28         3.8290    6.2400    0.1030 c3        1 MOL     -0.215873
     82 C29         3.2370    6.9840   -1.0650 c         1 MOL      0.609752
     83 N8          2.9950    6.3070   -2.1480 n         1 MOL     -0.655195
     84 O15         2.9980    8.1430   -1.0050 o         1 MOL     -0.617376
     85 H33         4.4440    3.0510    0.9220 hn        1 MOL      0.055558
     86 H34         3.1700    5.0330    2.7680 h1        1 MOL      0.043839
     87 H35         2.0330    6.1060    1.1170 hc        1 MOL     -0.001644
     88 H36         2.2640    4.8200   -0.0480 hc        1 MOL     -0.001644
     89 H37         4.5950    5.5580   -0.2680 hc        1 MOL      0.069465
     90 H38         4.0950    6.9620    0.8720 hc        1 MOL      0.069465
     91 H39         3.0560    5.2990   -2.1190 hn        1 MOL      0.308529
     92 H40         2.7070    6.9270   -2.9050 hn        1 MOL      0.308529
     93 N9          0.9260    3.6460    2.3740 n         1 MOL     -0.453036
     94 C30        -0.1550    2.6510    2.5410 c3        1 MOL      0.340397
     95 C31        -1.2980    3.0150    1.5470 c         1 MOL      0.257258
     96 O16        -1.8840    4.1200    1.5410 o         1 MOL     -0.562300
     97 C32        -0.7210    2.4960    3.9390 c3        1 MOL      0.271839
     98 C33        -1.8240    1.4240    4.1440 c3        1 MOL     -0.322641
     99 C34         0.2860    2.2160    5.0250 c3        1 MOL     -0.322641
    100 H41         0.7080    4.5990    2.6160 hn        1 MOL      0.252274
    101 H42         0.1500    1.6300    2.2790 h1        1 MOL     -0.020387
    102 H43        -1.1530    3.4740    4.1470 hc        1 MOL     -0.063758
    103 H44        -1.4570    0.3930    4.0450 hc        1 MOL      0.066202
    104 H45        -2.2510    1.4830    5.1490 hc        1 MOL      0.066202
    105 H46        -2.5720    1.5970    3.3790 hc        1 MOL      0.066202
    106 H47         0.9430    1.4010    4.7090 hc        1 MOL      0.066202
    107 H48         0.9690    3.0480    5.2240 hc        1 MOL      0.066202
    108 H49        -0.2190    1.9400    5.9440 hc        1 MOL      0.066202
    109 N10        -1.7790    2.0130    0.8070 n         1 MOL     -0.125492
    110 C35        -2.9920    2.1640   -0.1110 c3        1 MOL      0.173156
    111 C36        -4.2530    1.4750    0.4250 c         1 MOL      0.153810
    112 O17        -4.1450    0.4890    1.1770 o         1 MOL     -0.165851
    113 C37        -2.5040    1.6190   -1.4530 c3        1 MOL     -0.329933
    114 C38        -3.5320    1.6560   -2.4840 c         1 MOL      0.691200
    115 N11        -3.7850    2.8150   -3.0960 n         1 MOL     -0.758197
    116 O18        -4.2710    0.6700   -2.7130 o         1 MOL     -0.560843
    117 H50        -1.3220    1.1110    0.8500 hn        1 MOL      0.221037
    118 H51        -3.1130    3.2450   -0.1900 h1        1 MOL      0.058715
    119 H52        -2.2260    0.5670   -1.3210 hc        1 MOL      0.116250
    120 H53        -1.7100    2.1830   -1.9360 hc        1 MOL      0.116250
    121 H54        -3.4290    3.7200   -2.8120 hn        1 MOL      0.341409
    122 H55        -4.3390    2.7530   -3.9350 hn        1 MOL      0.341409
    123 N12        -5.4370    1.7630   -0.1190 n         1 MOL     -0.167236
    124 C39        -6.7700    1.1950    0.1490 c3        1 MOL     -0.018238
    125 C40        -6.6990   -0.3140    0.3860 c         1 MOL      0.342353
    126 O19        -7.4210   -0.8900    1.2230 o         1 MOL     -0.515382
    127 C41        -7.8680    1.5040   -0.8830 c3        1 MOL     -0.057497
    128 C42        -8.3480    2.9410   -1.0250 ca        1 MOL      0.012864
    129 C43        -9.4140    3.3800   -0.2400 ca        1 MOL     -0.046604
    130 C44        -7.8110    3.6850   -2.0130 ca        1 MOL     -0.046604
    131 C45       -10.0420    4.5890   -0.4830 ca        1 MOL     -0.375756
    132 C46        -8.3730    4.9680   -2.2310 ca        1 MOL     -0.375756
    133 C47        -9.5080    5.4050   -1.4920 ca        1 MOL      0.406095
    134 O20       -10.0810    6.5630   -1.7650 oh        1 MOL     -0.481531
    135 H56        -5.4310    2.5010   -0.8000 hn        1 MOL      0.116136
    136 H57        -7.2660    1.6140    1.0280 h1        1 MOL      0.059672
    137 H58        -8.7600    0.9190   -0.6370 hc        1 MOL      0.060304
    138 H59        -7.6150    1.1820   -1.8970 hc        1 MOL      0.060304
    139 H60        -9.8050    2.7400    0.5360 ha        1 MOL      0.123406
    140 H61        -7.0360    3.4080   -2.7200 ha        1 MOL      0.123406
    141 H62       -10.8870    4.8950    0.1220 ha        1 MOL      0.159610
    142 H63        -8.0650    5.6440   -3.0070 ha        1 MOL      0.159610
    143 H64        -9.5400    7.1480   -2.2950 ho        1 MOL      0.345212
    144 N13        -5.8980   -1.0090   -0.4250 n         1 MOL     -0.069575
    145 C48        -5.8910   -2.4770   -0.3840 c3        1 MOL     -0.285622
    146 C49        -4.9740   -3.0430    0.6750 c         1 MOL      0.481886
    147 O21        -5.0790   -4.2230    0.9980 o         1 MOL     -0.549292
    148 C50        -5.3110   -3.0130   -1.7040 c3        1 MOL      0.016573
    149 C51        -6.2790   -2.6310   -2.8130 c3        1 MOL     -0.058423
    150 C52        -7.7050   -3.1890   -2.6580 c         1 MOL      0.695098
    151 O22        -8.6340   -2.6700   -3.3200 o         1 MOL     -0.736524
    152 O23        -7.8830   -4.3110   -2.0740 o         1 MOL     -0.736524
    153 H65        -5.3200   -0.5240   -1.1000 hn        1 MOL      0.234264
    154 H66        -6.8670   -2.9120   -0.1700 h1        1 MOL      0.186083
    155 H67        -5.0700   -4.0700   -1.6060 hc        1 MOL      0.012521
    156 H68        -4.3490   -2.5630   -1.9420 hc        1 MOL      0.012521
    157 H69        -5.9070   -3.0690   -3.7300 hc        1 MOL     -0.028363
    158 H70        -6.3990   -1.5610   -2.9810 hc        1 MOL     -0.028363
    159 N14        -4.0380   -2.2560    1.2150 n         1 MOL     -0.183426
    160 C53        -3.1000   -2.6920    2.3050 c3        1 MOL     -0.014166
    161 C54        -3.7630   -2.3920    3.5790 c         1 MOL      0.419212
    162 O24        -3.6830   -3.1020    4.5990 o         1 MOL     -0.579635
    163 C55        -1.8220   -1.9350    2.0730 c3        1 MOL      0.241316
    164 C56        -1.1480   -2.2430    0.7510 c3        1 MOL     -0.123263
    165 C57         0.0850   -1.4140    0.4440 c         1 MOL      0.855902
    166 O25         0.9470   -1.8960   -0.2910 o         1 MOL     -0.804352
    167 O26         0.3330   -0.2770    0.9180 o         1 MOL     -0.804352
    168 H71        -4.1340   -1.2870    0.9360 hn        1 MOL      0.030540
    169 H72        -2.8110   -3.7470    2.2410 h1        1 MOL      0.063911
    170 H73        -1.1260   -2.2530    2.8530 hc        1 MOL     -0.043438
    171 H74        -2.0930   -0.8830    2.1210 hc        1 MOL     -0.043438
    172 H75        -1.7960   -2.0500   -0.1090 hc        1 MOL      0.004546
    173 H76        -0.9760   -3.3110    0.6810 hc        1 MOL      0.004546
    174 N15        -4.3980   -1.2580    3.6490 n         1 MOL      0.032941
    175 C58        -5.0130   -0.6840    4.8380 c3        1 MOL     -0.365345
    176 H77        -4.2940   -0.6930    5.6580 h1        1 MOL      0.118449
    177 H78        -5.3160    0.3430    4.6320 h1        1 MOL      0.118449
    178 H79        -5.8870   -1.2730    5.1160 h1        1 MOL      0.118449
    179 H80        -4.3800   -0.7710    2.7650 hn        1 MOL      0.019415
    180 Ca1         2.8160    0.1250    0.4120 Ca        1 MOL      1.754588
    181 O27         2.8390   -0.9270    3.0750 oh        1 MOL     -0.860645
    182 O28         1.1190    2.0230   -1.0620 oh        1 MOL     -0.860645
    183 H81         3.2400   -0.4700    3.8190 ho        1 MOL      0.410816
    184 H82         0.9080    1.4830   -1.8260 ho        1 MOL      0.410816
    185 H83         2.2880   -1.5920    3.4780 ho        1 MOL      0.410816
    186 H84         1.8280    2.5900   -1.3520 ho        1 MOL      0.410816
    187 O29         5.3340   -0.1470    1.3890 oh        1 MOL     -0.860645
    188 H85         5.5040   -1.0910    1.3760 ho        1 MOL      0.410816
    189 H86         5.7600    0.1610    2.1910 ho        1 MOL      0.410816
@<TRIPOS>BOND
     1    1    2 1   
     2    1    4 1   
     3    1    5 1   
     4    1    6 1   
     5    2    3 2   
     6    2    7 1   
     7    7    8 1   
     8    7   15 1   
     9    8    9 1   
    10    8   11 1   
    11    8   16 1   
    12    9   10 2   
    13    9   19 1   
    14   11   12 1   
    15   11   17 1   
    16   11   18 1   
    17   12   13 1   
    18   12   14 1   
    19   19   20 1   
    20   19   27 1   
    21   20   21 1   
    22   20   23 1   
    23   20   28 1   
    24   21   22 2   
    25   21   38 1   
    26   23   24 1   
    27   23   25 1   
    28   23   29 1   
    29   24   26 1   
    30   24   30 1   
    31   24   31 1   
    32   25   32 1   
    33   25   33 1   
    34   25   34 1   
    35   26   35 1   
    36   26   36 1   
    37   26   37 1   
    38   38   39 1   
    39   38   46 1   
    40   39   40 1   
    41   39   42 1   
    42   39   47 1   
    43   40   41 2   
    44   40   50 1   
    45   42   43 1   
    46   42   48 1   
    47   42   49 1   
    48   43   44 1   
    49   43   45 1   
    50   50   51 1   
    51   50   54 1   
    52   51   52 1   
    53   51   55 1   
    54   51   56 1   
    55   52   53 2   
    56   52   57 1   
    57   57   58 1   
    58   57   65 1   
    59   58   59 1   
    60   58   61 1   
    61   58   66 1   
    62   59   60 2   
    63   59   69 1   
    64   61   62 1   
    65   61   67 1   
    66   61   68 1   
    67   62   63 1   
    68   62   64 1   
    69   69   70 1   
    70   69   73 1   
    71   70   71 1   
    72   70   74 1   
    73   70   75 1   
    74   71   72 2   
    75   71   76 1   
    76   76   77 1   
    77   76   85 1   
    78   77   78 1   
    79   77   80 1   
    80   77   86 1   
    81   78   79 2   
    82   78   93 1   
    83   80   81 1   
    84   80   87 1   
    85   80   88 1   
    86   81   82 1   
    87   81   89 1   
    88   81   90 1   
    89   82   83 1   
    90   82   84 2   
    91   83   91 1   
    92   83   92 1   
    93   93   94 1   
    94   93  100 1   
    95   94   95 1   
    96   94   97 1   
    97   94  101 1   
    98   95   96 2   
    99   95  109 1   
   100   97   98 1   
   101   97   99 1   
   102   97  102 1   
   103   98  103 1   
   104   98  104 1   
   105   98  105 1   
   106   99  106 1   
   107   99  107 1   
   108   99  108 1   
   109  109  110 1   
   110  109  117 1   
   111  110  111 1   
   112  110  113 1   
   113  110  118 1   
   114  111  112 2   
   115  111  123 1   
   116  113  114 1   
   117  113  119 1   
   118  113  120 1   
   119  114  115 1   
   120  114  116 2   
   121  115  121 1   
   122  115  122 1   
   123  123  124 1   
   124  123  135 1   
   125  124  125 1   
   126  124  127 1   
   127  124  136 1   
   128  125  126 2   
   129  125  144 1   
   130  127  128 1   
   131  127  137 1   
   132  127  138 1   
   133  128  129 ar  
   134  128  130 ar  
   135  129  131 ar  
   136  129  139 1   
   137  130  132 ar  
   138  130  140 1   
   139  131  133 ar  
   140  131  141 1   
   141  132  133 ar  
   142  132  142 1   
   143  133  134 1   
   144  134  143 1   
   145  144  145 1   
   146  144  153 1   
   147  145  146 1   
   148  145  148 1   
   149  145  154 1   
   150  146  147 2   
   151  146  159 1   
   152  148  149 1   
   153  148  155 1   
   154  148  156 1   
   155  149  150 1   
   156  149  157 1   
   157  149  158 1   
   158  150  151 1   
   159  150  152 1   
   160  159  160 1   
   161  159  168 1   
   162  160  161 1   
   163  160  163 1   
   164  160  169 1   
   165  161  162 2   
   166  161  174 1   
   167  163  164 1   
   168  163  170 1   
   169  163  171 1   
   170  164  165 1   
   171  164  172 1   
   172  164  173 1   
   173  165  166 1   
   174  165  167 1   
   175  174  175 1   
   176  174  179 1   
   177  175  176 1   
   178  175  177 1   
   179  175  178 1   
   180  181  183 1   
   181  181  185 1   
   182  182  184 1   
   183  182  186 1   
   184  187  188 1   
   185  187  189 1   
@<TRIPOS>SUBSTRUCTURE
     1 MOL         1 TEMP              0 ****  ****    0 ROOT
