@<TRIPOS>MOLECULE
MOL
  175   173     1     0     0
SMALL
resp


@<TRIPOS>ATOM
      1 C1         -0.3280   -3.3910    5.7430 c3        1 MOL     -0.374018
      2 C2          0.2420   -3.3910    4.3230 c         1 MOL      0.782338
      3 O1         -0.4410   -3.5310    3.3150 o         1 MOL     -0.592207
      4 H1         -1.4160   -3.3760    5.6970 hc        1 MOL      0.091304
      5 H2          0.0000   -4.2890    6.2670 hc        1 MOL      0.091304
      6 H3          0.0260   -2.5090    6.2770 hc        1 MOL      0.091304
      7 N1          1.5750   -3.2010    4.2350 n         1 MOL     -0.744177
      8 C3          2.2730   -3.1140    2.9000 c3        1 MOL      0.187507
      9 C4          2.2060   -4.4290    2.0920 c         1 MOL      0.727928
     10 O2          2.3770   -5.4610    2.6910 o         1 MOL     -0.597076
     11 C5          3.7380   -2.7610    3.0590 c3        1 MOL     -0.089129
     12 C6          4.3760   -2.3680    1.7510 c         1 MOL      0.617702
     13 O3          3.6760   -1.7760    0.8850 o         1 MOL     -0.643008
     14 O4          5.5880   -2.5240    1.6620 o         1 MOL     -0.643008
     15 H4          2.0960   -3.0300    5.0800 hn        1 MOL      0.329989
     16 H5          1.8360   -2.2780    2.3540 h1        1 MOL      0.061903
     17 H6          4.2760   -3.6460    3.3850 hc        1 MOL      0.005633
     18 H7          3.9550   -1.9740    3.7870 hc        1 MOL      0.005633
     19 N2          2.1030   -4.2620    0.7500 n         1 MOL     -0.661145
     20 C7          2.0420   -5.3290   -0.1980 c3        1 MOL      0.287344
     21 C8          2.8910   -5.1040   -1.5000 c         1 MOL      0.415850
     22 O5          3.0340   -5.9450   -2.4000 o         1 MOL     -0.556752
     23 C9          0.5990   -5.6340   -0.5670 c3        1 MOL     -0.347502
     24 H8          1.9680   -3.3060    0.4470 hn        1 MOL      0.366432
     25 H9          2.5590   -6.1790    0.2340 h1        1 MOL      0.020040
     26 H10        -0.0520   -5.5970    0.3060 hc        1 MOL      0.088224
     27 H11         0.2310   -4.7980   -1.1790 hc        1 MOL      0.088224
     28 H12         0.5530   -6.6110   -1.0310 hc        1 MOL      0.088224
     29 N3          3.6080   -3.9670   -1.6170 n         1 MOL     -0.176061
     30 C10         4.5240   -3.6800   -2.7300 c3        1 MOL     -0.165573
     31 C11         5.8300   -2.8960   -2.4070 c         1 MOL      0.479230
     32 O6          6.6100   -2.7360   -3.3660 o         1 MOL     -0.561197
     33 C12         3.7100   -2.9720   -3.8460 c3        1 MOL      0.032634
     34 C13         2.7070   -1.9220   -3.3270 c         1 MOL      0.639315
     35 O7          3.0660   -1.1420   -2.3870 o         1 MOL     -0.663682
     36 O8          1.6570   -1.7150   -3.9460 o         1 MOL     -0.663682
     37 H13         3.4650   -3.2500   -0.9200 hn        1 MOL      0.110652
     38 H14         4.8190   -4.6380   -3.1660 h1        1 MOL      0.118953
     39 H15         3.0490   -3.6990   -4.3180 hc        1 MOL     -0.000493
     40 H16         4.2810   -2.5130   -4.6510 hc        1 MOL     -0.000493
     41 N4          6.1210   -2.5340   -1.1550 n         1 MOL     -0.216468
     42 C14         7.3510   -1.8090   -0.7780 c3        1 MOL     -0.157127
     43 C15         7.3220   -0.2600   -1.0180 c         1 MOL      0.491056
     44 O9          8.3570    0.3960   -0.8980 o         1 MOL     -0.608036
     45 H17         5.4100   -2.6580   -0.4390 hn        1 MOL      0.147631
     46 H18         8.2430   -2.2220   -1.2550 h1        1 MOL      0.111317
     47 H19         7.5180   -1.9680    0.2860 h1        1 MOL      0.111317
     48 N5          6.2230    0.3330   -1.4340 n         1 MOL     -0.160234
     49 C16         6.1650    1.7050   -1.9600 c3        1 MOL      0.082201
     50 C17         6.1560    2.8780   -0.9950 c         1 MOL      0.281911
     51 O10         5.9700    4.0160   -1.5040 o         1 MOL     -0.467980
     52 C18         5.0770    1.8590   -3.0680 c3        1 MOL     -0.285960
     53 C19         3.6420    2.0830   -2.4810 c         1 MOL      0.521073
     54 N6          2.6970    2.2440   -3.3290 n         1 MOL     -0.594347
     55 O11         3.4320    2.1380   -1.2360 o         1 MOL     -0.324187
     56 H20         5.4320   -0.2410   -1.6680 hn        1 MOL      0.092493
     57 H21         7.1280    1.7930   -2.4620 h1        1 MOL      0.090820
     58 H22         5.0800    0.9210   -3.6140 hc        1 MOL      0.098577
     59 H23         5.3490    2.6730   -3.7380 hc        1 MOL      0.098577
     60 H24         2.8330    2.3140   -4.3290 hn        1 MOL      0.349616
     61 H25         1.7760    2.4650   -2.9890 hn        1 MOL      0.349616
     62 N7          6.1690    2.6310    0.3220 n         1 MOL     -0.064592
     63 C20         6.2350    3.7000    1.3730 c3        1 MOL     -0.322795
     64 C21         5.0330    4.5410    1.5510 c         1 MOL      0.578672
     65 O12         5.0220    5.5390    2.2490 o         1 MOL     -0.585106
     66 H26         6.7610    1.8360    0.5430 hn        1 MOL      0.212832
     67 H27         6.9230    4.4700    1.0440 h1        1 MOL      0.125243
     68 H28         6.5560    3.3450    2.3590 h1        1 MOL      0.125243
     69 N8          3.9070    4.1020    1.0020 n         1 MOL     -0.152521
     70 C22         2.5760    4.6780    1.1400 c3        1 MOL     -0.195363
     71 C23         1.5190    3.5530    1.2850 c         1 MOL      0.515740
     72 O13         1.6280    2.4830    0.6460 o         1 MOL     -0.355501
     73 C24         2.1950    5.5220   -0.0980 c3        1 MOL      0.480829
     74 C25         3.0190    6.8480   -0.2220 c3        1 MOL     -0.488367
     75 O14         2.4170    4.8210   -1.2880 oh        1 MOL     -0.513738
     76 H29         4.0350    3.4020    0.2940 hn        1 MOL      0.029522
     77 H30         2.4830    5.3640    1.9870 h1        1 MOL      0.099873
     78 H31         1.1470    5.8050   -0.0320 h1        1 MOL     -0.026587
     79 H32         2.3760    3.8760   -1.1480 ho        1 MOL      0.207274
     80 H33         2.8200    7.4570   -1.1090 hc        1 MOL      0.118338
     81 H34         2.9620    7.3980    0.7200 hc        1 MOL      0.118338
     82 H35         4.0850    6.6200   -0.2390 hc        1 MOL      0.118338
     83 N9          0.4790    3.7920    2.0950 n         1 MOL     -0.562896
     84 C26        -0.6970    2.9790    2.0150 c3        1 MOL     -0.004614
     85 C27        -1.4920    3.2720    0.7180 c         1 MOL      0.568757
     86 O15        -2.0040    4.3660    0.5440 o         1 MOL     -0.594274
     87 C28        -1.5950    3.0500    3.2550 c3        1 MOL      0.396595
     88 C29        -0.7560    2.7050    4.5130 c3        1 MOL     -0.067509
     89 C30        -2.9100    2.2530    3.1590 c3        1 MOL     -0.407155
     90 C31        -1.7020    2.6470    5.7340 c3        1 MOL     -0.103082
     91 H36         0.3630    4.7200    2.4660 hn        1 MOL      0.316987
     92 H37        -0.3970    1.9390    1.9510 h1        1 MOL     -0.044401
     93 H38        -1.8540    4.1060    3.2150 hc        1 MOL     -0.073945
     94 H39        -0.0800    3.5730    4.5400 hc        1 MOL      0.012452
     95 H40        -0.2240    1.7570    4.5030 hc        1 MOL      0.012452
     96 H41        -3.3830    2.4190    2.1870 hc        1 MOL      0.084110
     97 H42        -2.6840    1.1970    3.2870 hc        1 MOL      0.084110
     98 H43        -3.6560    2.5580    3.8870 hc        1 MOL      0.084110
     99 H44        -2.4710    1.8660    5.7200 hc        1 MOL      0.017613
    100 H45        -1.1120    2.4300    6.6240 hc        1 MOL      0.017613
    101 H46        -2.1150    3.6530    5.8490 hc        1 MOL      0.017613
    102 N10        -1.6110    2.2210   -0.1200 n         1 MOL     -0.291920
    103 C32        -2.5360    2.0870   -1.2380 c3        1 MOL      0.004692
    104 C33        -3.9660    1.5330   -0.7800 c         1 MOL      0.643883
    105 O16        -4.1980    1.1000    0.3110 o         1 MOL     -0.453580
    106 C34        -1.8710    1.2270   -2.2650 c3        1 MOL     -0.200748
    107 C35        -0.4300    1.5880   -2.5340 c         1 MOL      0.767915
    108 O17         0.4300    1.1060   -1.8100 o         1 MOL     -0.721044
    109 O18        -0.0750    2.3520   -3.4740 o         1 MOL     -0.721044
    110 H47        -1.1220    1.4260    0.2570 hn        1 MOL      0.233613
    111 H48        -2.7830    3.0870   -1.6060 h1        1 MOL      0.065742
    112 H49        -2.4730    1.2260   -3.1730 hc        1 MOL      0.051075
    113 H50        -1.8450    0.2390   -1.8080 hc        1 MOL      0.051075
    114 N11        -4.9630    1.6030   -1.6900 n         1 MOL     -0.853865
    115 C36        -6.3590    1.3800   -1.3440 c3        1 MOL      0.582227
    116 C37        -6.5680   -0.1260   -1.0870 c         1 MOL      0.180941
    117 O19        -7.3010   -0.3980   -0.0990 o         1 MOL     -0.451266
    118 C38        -7.2570    2.0070   -2.4280 c3        1 MOL     -0.330003
    119 C39        -8.7250    1.8480   -2.2050 ca        1 MOL      0.266425
    120 C40        -9.2030    1.9870   -0.8820 ca        1 MOL     -0.325714
    121 C41        -9.6150    1.3950   -3.2280 ca        1 MOL     -0.325714
    122 C42       -10.5530    1.6950   -0.5580 ca        1 MOL      0.033255
    123 C43       -10.9370    1.0080   -2.8300 ca        1 MOL      0.033255
    124 C44       -11.4600    1.2980   -1.5550 ca        1 MOL     -0.262090
    125 H51        -4.7460    1.9500   -2.6160 hn        1 MOL      0.354060
    126 H52        -6.5060    1.9020   -0.3970 h1        1 MOL      0.035678
    127 H53        -7.0100    1.5210   -3.3740 hc        1 MOL      0.086966
    128 H54        -6.9910    3.0570   -2.6010 hc        1 MOL      0.086966
    129 H55        -8.5460    2.3510   -0.1120 ha        1 MOL      0.144858
    130 H56        -9.1410    1.0250   -4.1250 ha        1 MOL      0.144858
    131 H57       -10.8320    1.9190    0.4590 ha        1 MOL      0.082574
    132 H58       -11.6250    0.4990   -3.4970 ha        1 MOL      0.082574
    133 H59       -12.4380    0.9710   -1.2350 ha        1 MOL      0.134828
    134 N12        -6.0660   -1.1230   -1.8170 n         1 MOL     -0.009329
    135 C45        -6.2280   -2.5270   -1.4740 c3        1 MOL     -0.000875
    136 C46        -5.7280   -2.8270   -0.0530 c         1 MOL      0.307466
    137 O20        -6.2380   -3.7400    0.5820 o         1 MOL     -0.496695
    138 C47        -5.4750   -3.3320   -2.5190 c3        1 MOL      0.128610
    139 C48        -5.6790   -2.4460   -3.7280 c3        1 MOL     -0.214381
    140 C49        -5.5300   -1.0500   -3.1430 c3        1 MOL      0.047478
    141 H60        -7.2910   -2.7440   -1.4750 h1        1 MOL      0.053489
    142 H61        -4.4240   -3.3950   -2.2130 hc        1 MOL      0.012988
    143 H62        -5.8500   -4.3530   -2.5940 hc        1 MOL      0.012988
    144 H63        -4.8710   -2.6560   -4.4350 hc        1 MOL      0.062862
    145 H64        -6.6880   -2.5950   -4.1320 hc        1 MOL      0.062862
    146 H65        -4.4760   -0.7890   -3.1170 h1        1 MOL      0.026194
    147 H66        -6.0370   -0.2700   -3.6980 h1        1 MOL      0.026194
    148 N13        -4.7490   -2.0450    0.4420 n         1 MOL     -0.106185
    149 C50        -4.0690   -2.2300    1.7300 c3        1 MOL     -0.188818
    150 C51        -4.7880   -1.5550    2.8830 c         1 MOL      0.452742
    151 O21        -4.7590   -1.9550    4.0370 o         1 MOL     -0.566920
    152 C52        -2.5880   -1.6970    1.7040 c3        1 MOL     -0.037226
    153 C53        -1.7780   -2.0500    0.4550 c3        1 MOL      0.055595
    154 C54        -0.3620   -1.4670    0.5050 c         1 MOL      0.496225
    155 O22         0.6330   -1.9310   -0.0800 o         1 MOL     -0.645856
    156 O23        -0.2220   -0.2500    0.8880 o         1 MOL     -0.645856
    157 H67        -4.4960   -1.2000   -0.0560 hn        1 MOL      0.117242
    158 H68        -4.0260   -3.2980    1.9510 h1        1 MOL      0.132874
    159 H69        -2.1300   -1.9900    2.6470 hc        1 MOL      0.062727
    160 H70        -2.6910   -0.6160    1.6800 hc        1 MOL      0.062727
    161 H71        -2.3020   -1.6710   -0.4220 hc        1 MOL      0.027727
    162 H72        -1.7540   -3.1130    0.2260 hc        1 MOL      0.027727
    163 N14        -5.6040   -0.5400    2.6590 n         1 MOL      0.025797
    164 C55        -6.3980    0.1100    3.7220 c3        1 MOL     -0.215708
    165 H73        -7.4530   -0.1250    3.5820 h1        1 MOL      0.079982
    166 H74        -6.0710   -0.2560    4.6960 h1        1 MOL      0.079982
    167 H75        -6.2570    1.1900    3.6730 h1        1 MOL      0.079982
    168 H76        -5.7340   -0.2610    1.6950 hn        1 MOL      0.045443
    169 Ca1         2.2020    0.0350   -0.3500 Ca        1 MOL      1.566664
    170 O24         1.7670    0.1770    2.5810 oh        1 MOL     -0.855644
    171 H77         1.9200    0.0570    3.5220 ho        1 MOL      0.403390
    172 H78         0.8210    0.0580    2.4750 ho        1 MOL      0.403390
    173 O25         4.2780    0.8960    1.3750 oh        1 MOL     -0.855644
    174 H79         3.7740    0.7670    2.1780 ho        1 MOL      0.403390
    175 H80         5.1840    0.7010    1.6300 ho        1 MOL      0.403390
@<TRIPOS>BOND
     1    1    2 1   
     2    1    4 1   
     3    1    5 1   
     4    1    6 1   
     5    2    3 2   
     6    2    7 1   
     7    7    8 1   
     8    7   15 1   
     9    8    9 1   
    10    8   11 1   
    11    8   16 1   
    12    9   10 2   
    13    9   19 1   
    14   11   12 1   
    15   11   17 1   
    16   11   18 1   
    17   12   13 1   
    18   12   14 1   
    19   19   20 1   
    20   19   24 1   
    21   20   21 1   
    22   20   23 1   
    23   20   25 1   
    24   21   22 2   
    25   21   29 1   
    26   23   26 1   
    27   23   27 1   
    28   23   28 1   
    29   29   30 1   
    30   29   37 1   
    31   30   31 1   
    32   30   33 1   
    33   30   38 1   
    34   31   32 2   
    35   31   41 1   
    36   33   34 1   
    37   33   39 1   
    38   33   40 1   
    39   34   35 1   
    40   34   36 1   
    41   41   42 1   
    42   41   45 1   
    43   42   43 1   
    44   42   46 1   
    45   42   47 1   
    46   43   44 2   
    47   43   48 1   
    48   48   49 1   
    49   48   56 1   
    50   49   50 1   
    51   49   52 1   
    52   49   57 1   
    53   50   51 2   
    54   50   62 1   
    55   52   53 1   
    56   52   58 1   
    57   52   59 1   
    58   53   54 1   
    59   53   55 2   
    60   54   60 1   
    61   54   61 1   
    62   62   63 1   
    63   62   66 1   
    64   63   64 1   
    65   63   67 1   
    66   63   68 1   
    67   64   65 2   
    68   64   69 1   
    69   69   70 1   
    70   69   76 1   
    71   70   71 1   
    72   70   73 1   
    73   70   77 1   
    74   71   72 2   
    75   71   83 1   
    76   73   74 1   
    77   73   75 1   
    78   73   78 1   
    79   74   80 1   
    80   74   81 1   
    81   74   82 1   
    82   75   79 1   
    83   83   84 1   
    84   83   91 1   
    85   84   85 1   
    86   84   87 1   
    87   84   92 1   
    88   85   86 2   
    89   85  102 1   
    90   87   88 1   
    91   87   89 1   
    92   87   93 1   
    93   88   90 1   
    94   88   94 1   
    95   88   95 1   
    96   89   96 1   
    97   89   97 1   
    98   89   98 1   
    99   90   99 1   
   100   90  100 1   
   101   90  101 1   
   102  102  103 1   
   103  102  110 1   
   104  103  104 1   
   105  103  106 1   
   106  103  111 1   
   107  104  105 2   
   108  104  114 1   
   109  106  107 1   
   110  106  112 1   
   111  106  113 1   
   112  107  108 1   
   113  107  109 1   
   114  114  115 1   
   115  114  125 1   
   116  115  116 1   
   117  115  118 1   
   118  115  126 1   
   119  116  117 2   
   120  116  134 1   
   121  118  119 1   
   122  118  127 1   
   123  118  128 1   
   124  119  120 ar  
   125  119  121 ar  
   126  120  122 ar  
   127  120  129 1   
   128  121  123 ar  
   129  121  130 1   
   130  122  124 ar  
   131  122  131 1   
   132  123  124 ar  
   133  123  132 1   
   134  124  133 1   
   135  134  135 1   
   136  134  140 1   
   137  135  136 1   
   138  135  138 1   
   139  135  141 1   
   140  136  137 2   
   141  136  148 1   
   142  138  139 1   
   143  138  142 1   
   144  138  143 1   
   145  139  140 1   
   146  139  144 1   
   147  139  145 1   
   148  140  146 1   
   149  140  147 1   
   150  148  149 1   
   151  148  157 1   
   152  149  150 1   
   153  149  152 1   
   154  149  158 1   
   155  150  151 2   
   156  150  163 1   
   157  152  153 1   
   158  152  159 1   
   159  152  160 1   
   160  153  154 1   
   161  153  161 1   
   162  153  162 1   
   163  154  155 1   
   164  154  156 1   
   165  163  164 1   
   166  163  168 1   
   167  164  165 1   
   168  164  166 1   
   169  164  167 1   
   170  170  171 1   
   171  170  172 1   
   172  173  174 1   
   173  173  175 1   
@<TRIPOS>SUBSTRUCTURE
     1 MOL         1 TEMP              0 ****  ****    0 ROOT
