@<TRIPOS>MOLECULE
MOL
  186   183     1     0     0
SMALL
resp


@<TRIPOS>ATOM
      1 C1          0.6010   -2.0560    6.2970 c3        1 MOL     -0.325459
      2 C2          0.9080   -2.2330    4.8420 c         1 MOL      0.884288
      3 O1          0.0710   -2.6760    4.1030 o         1 MOL     -0.652575
      4 H1          1.5010   -2.2410    6.8830 hc        1 MOL      0.066748
      5 H2          0.2560   -1.0380    6.4750 hc        1 MOL      0.066748
      6 H3         -0.1760   -2.7600    6.5940 hc        1 MOL      0.066748
      7 N1          2.1430   -1.8990    4.4160 n         1 MOL     -0.800369
      8 C3          2.5890   -1.6490    3.1020 c3        1 MOL      0.430534
      9 C4          2.8990   -3.0380    2.4910 c         1 MOL      0.460034
     10 O2          3.7560   -3.7630    2.9260 o         1 MOL     -0.575662
     11 C5          3.8770   -0.7960    3.0600 c3        1 MOL     -0.312250
     12 C6          4.3630   -0.4320    1.6880 c         1 MOL      0.896452
     13 O3          5.3380    0.2950    1.6500 o         1 MOL     -0.711494
     14 O4          3.7500   -0.9440    0.7000 o         1 MOL     -0.711494
     15 H4          2.7940   -1.6600    5.1560 hn        1 MOL      0.335371
     16 H5          1.8430   -1.1680    2.4790 h1        1 MOL     -0.047737
     17 H6          4.6640   -1.2940    3.6290 hc        1 MOL      0.032395
     18 H7          3.5500    0.1080    3.5710 hc        1 MOL      0.032395
     19 N2          2.0610   -3.4920    1.5810 n         1 MOL     -0.133356
     20 C7          2.0630   -4.8210    1.0690 c3        1 MOL      0.030993
     21 C8          3.1960   -5.0320   -0.0100 c         1 MOL      0.303107
     22 O5          3.9820   -5.9520    0.1810 o         1 MOL     -0.556288
     23 C9          0.6430   -5.3500    0.6570 c3        1 MOL      0.235818
     24 C10        -0.3900   -5.0170    1.7760 c3        1 MOL      0.036421
     25 C11         0.5370   -6.7720    0.3480 c3        1 MOL     -0.452215
     26 C12        -1.8750   -5.5250    1.6730 c3        1 MOL     -0.064817
     27 H8          1.5690   -2.8310    1.0020 hn        1 MOL      0.047302
     28 H9          2.2410   -5.5010    1.9100 h1        1 MOL      0.042556
     29 H10         0.3010   -4.8670   -0.2510 hc        1 MOL      0.002380
     30 H11        -0.4850   -3.9330    1.7390 hc        1 MOL     -0.004892
     31 H12         0.0390   -5.2770    2.7400 hc        1 MOL     -0.004892
     32 H13        -0.4380   -7.0060   -0.0780 hc        1 MOL      0.092829
     33 H14         1.2140   -7.0820   -0.4520 hc        1 MOL      0.092829
     34 H15         0.7700   -7.2950    1.2720 hc        1 MOL      0.092829
     35 H16        -1.8850   -6.6170    1.7150 hc        1 MOL      0.011658
     36 H17        -2.4810   -5.2450    2.5410 hc        1 MOL      0.011658
     37 H18        -2.2510   -5.2600    0.6870 hc        1 MOL      0.011658
     38 N3          3.1610   -4.3360   -1.1010 n         1 MOL     -0.132932
     39 C13         4.1250   -4.4950   -2.1340 c3        1 MOL      0.030505
     40 C14         5.5230   -3.9100   -1.7680 c         1 MOL      0.383464
     41 O6          6.5050   -4.3250   -2.4150 o         1 MOL     -0.569435
     42 C15         3.5650   -3.8730   -3.4050 c3        1 MOL     -0.166707
     43 C16         3.3160   -2.3800   -3.3860 c         1 MOL      0.801785
     44 O7          3.0770   -1.8930   -4.5340 o         1 MOL     -0.709112
     45 O8          3.4790   -1.7030   -2.3380 o         1 MOL     -0.709112
     46 H19         2.4350   -3.6310   -1.1190 hn        1 MOL      0.153811
     47 H20         4.1550   -5.5730   -2.2800 h1        1 MOL      0.064213
     48 H21         2.5900   -4.3200   -3.5860 hc        1 MOL      0.028229
     49 H22         4.2690   -4.1790   -4.1810 hc        1 MOL      0.028229
     50 N4          5.6250   -2.9910   -0.8190 n         1 MOL      0.150269
     51 C17         6.9000   -2.5150   -0.3170 c3        1 MOL     -0.348695
     52 C18         7.4230   -1.2990   -1.0800 c         1 MOL      0.802449
     53 O9          8.3770   -1.4430   -1.8340 o         1 MOL     -0.597264
     54 H23         4.7480   -2.6640   -0.4410 hn        1 MOL      0.058935
     55 H24         7.6360   -3.3170   -0.4060 h1        1 MOL      0.091518
     56 H25         6.8170   -2.2300    0.7330 h1        1 MOL      0.091518
     57 N5          6.9290   -0.0380   -0.8520 n         1 MOL     -0.685968
     58 C19         7.3860    1.1680   -1.5860 c3        1 MOL      0.083790
     59 C20         7.5170    2.4370   -0.7250 c         1 MOL      0.498972
     60 O10         8.0400    3.4860   -1.1320 o         1 MOL     -0.582486
     61 C21         6.4920    1.3490   -2.8890 c3        1 MOL     -0.136164
     62 C22         5.0810    1.3090   -2.4180 c         1 MOL      0.744068
     63 O11         4.1380    1.0780   -3.2690 o         1 MOL     -0.786812
     64 O12         4.7560    1.5100   -1.2260 o         1 MOL     -0.786812
     65 H26         6.2070    0.0760   -0.1510 hn        1 MOL      0.300064
     66 H27         8.3600    1.0180   -2.0540 h1        1 MOL      0.045779
     67 H28         6.6710    0.5560   -3.6100 hc        1 MOL      0.061125
     68 H29         6.7790    2.3010   -3.3310 hc        1 MOL      0.061125
     69 N6          7.1540    2.3680    0.5400 n         1 MOL     -0.340491
     70 C23         7.0620    3.5380    1.4940 c3        1 MOL     -0.099678
     71 C24         5.7240    4.2220    1.6260 c         1 MOL      0.599994
     72 O13         5.6940    5.1940    2.2760 o         1 MOL     -0.609544
     73 H30         6.9320    1.4480    0.8990 hn        1 MOL      0.271132
     74 H31         7.9260    4.2060    1.4340 h1        1 MOL      0.083622
     75 H32         7.1710    3.0600    2.4670 h1        1 MOL      0.083622
     76 N7          4.6270    3.7210    1.1020 n         1 MOL     -0.267813
     77 C25         3.2540    4.2290    1.2090 c3        1 MOL     -0.180667
     78 C26         2.1730    3.1520    1.3360 c         1 MOL      0.807755
     79 O14         2.3200    2.0050    0.9100 o         1 MOL     -0.706422
     80 C27         2.8230    5.1520    0.0100 c3        1 MOL      0.044894
     81 C28         3.4820    6.4790   -0.0250 c3        1 MOL     -0.222822
     82 C29         2.9170    7.4800   -1.0230 c         1 MOL      0.646749
     83 N8          2.7860    7.2280   -2.2810 n         1 MOL     -0.767465
     84 O15         2.4690    8.5450   -0.6160 o         1 MOL     -0.606474
     85 H33         4.7480    2.8140    0.6870 hn        1 MOL      0.227653
     86 H34         3.0180    4.8460    2.0890 h1        1 MOL      0.086354
     87 H35         1.7580    5.3140   -0.0560 hc        1 MOL      0.030609
     88 H36         2.9340    4.6230   -0.9440 hc        1 MOL      0.030609
     89 H37         4.5480    6.4620   -0.2460 hc        1 MOL      0.089987
     90 H38         3.4010    6.9620    0.9490 hc        1 MOL      0.089987
     91 H39         3.0560    6.3440   -2.6820 hn        1 MOL      0.355479
     92 H40         2.1700    7.8980   -2.7200 hn        1 MOL      0.355479
     93 N9          1.0560    3.6110    1.8460 n         1 MOL     -0.612438
     94 C30        -0.1760    2.7850    1.9600 c3        1 MOL      0.031960
     95 C31        -1.2990    3.2620    1.0890 c         1 MOL      0.514671
     96 O16        -1.8640    4.3090    1.3770 o         1 MOL     -0.560686
     97 C32        -0.5160    2.7680    3.5030 c3        1 MOL      0.332659
     98 C33        -1.8760    2.1260    3.8910 c3        1 MOL     -0.442832
     99 C34         0.4060    1.8750    4.3420 c3        1 MOL     -0.442832
    100 H41         1.1480    4.5600    2.1990 hn        1 MOL      0.297558
    101 H42         0.0820    1.7580    1.7030 h1        1 MOL      0.129656
    102 H43        -0.5310    3.7910    3.8950 hc        1 MOL     -0.025507
    103 H44        -2.6090    2.7680    3.4110 hc        1 MOL      0.101405
    104 H45        -1.9100    1.1070    3.5230 hc        1 MOL      0.101405
    105 H46        -2.0180    2.2530    4.9720 hc        1 MOL      0.101405
    106 H47         0.1050    2.0250    5.3750 hc        1 MOL      0.101405
    107 H48         0.2110    0.8330    4.0930 hc        1 MOL      0.101405
    108 H49         1.4540    2.1240    4.1700 hc        1 MOL      0.101405
    109 N10        -1.6150    2.3860    0.1030 n         1 MOL     -0.257733
    110 C35        -2.7260    2.6140   -0.8160 c3        1 MOL     -0.087894
    111 C36        -4.0480    2.2030   -0.2190 c         1 MOL      0.596852
    112 O17        -4.0270    1.3550    0.6650 o         1 MOL     -0.502581
    113 C37        -2.3550    2.0090   -2.2170 c3        1 MOL     -0.216645
    114 C38        -3.4670    2.0710   -3.2210 c         1 MOL      0.598235
    115 N11        -3.3590    2.8930   -4.2320 n         1 MOL     -0.689910
    116 O18        -4.4020    1.2530   -3.1310 o         1 MOL     -0.524698
    117 H50        -1.1840    1.4730    0.0490 hn        1 MOL      0.237374
    118 H51        -2.8040    3.6980   -0.8380 h1        1 MOL      0.044398
    119 H52        -2.0690    0.9890   -1.9650 hc        1 MOL      0.116283
    120 H53        -1.4550    2.4760   -2.6030 hc        1 MOL      0.116283
    121 H54        -2.6350    3.5930   -4.2370 hn        1 MOL      0.333215
    122 H55        -4.0800    2.9300   -4.9340 hn        1 MOL      0.333215
    123 N12        -5.1810    2.5620   -0.7950 n         1 MOL     -0.584124
    124 C39        -6.5050    2.0380   -0.3080 c3        1 MOL      0.243666
    125 C40        -6.5640    0.5430   -0.1270 c         1 MOL      0.589907
    126 O19        -6.9420    0.0810    0.9550 o         1 MOL     -0.542012
    127 C41        -7.4890    2.5720   -1.2750 c3        1 MOL     -0.058311
    128 C42        -8.9320    2.2350   -0.9180 ca        1 MOL     -0.059946
    129 C43        -9.5340    2.6720    0.2480 ca        1 MOL     -0.139576
    130 C44        -9.6160    1.3400   -1.7390 ca        1 MOL     -0.139576
    131 C45       -10.9000    2.5020    0.4270 ca        1 MOL     -0.229659
    132 C46       -10.9250    0.8840   -1.3870 ca        1 MOL     -0.229659
    133 C47       -11.6110    1.5670   -0.3280 ca        1 MOL      0.311884
    134 O20       -12.9650    1.4140   -0.1610 oh        1 MOL     -0.503918
    135 H56        -5.1120    3.3430   -1.4270 hn        1 MOL      0.275908
    136 H57        -6.8090    2.5110    0.6320 h1        1 MOL      0.020612
    137 H58        -7.2370    2.1860   -2.2620 hc        1 MOL      0.038897
    138 H59        -7.3680    3.6470   -1.4370 hc        1 MOL      0.038897
    139 H60        -9.0430    3.2690    1.0050 ha        1 MOL      0.133657
    140 H61        -9.1810    1.0100   -2.6760 ha        1 MOL      0.133657
    141 H62       -11.4620    3.0190    1.1830 ha        1 MOL      0.135603
    142 H63       -11.3510    0.1930   -2.0960 ha        1 MOL      0.135603
    143 H64       -13.2580    0.8420   -0.8700 ho        1 MOL      0.360114
    144 N13        -6.0790   -0.2250   -1.0470 n         1 MOL     -0.403187
    145 C48        -6.1090   -1.7040   -0.9330 c3        1 MOL      0.018046
    146 C49        -5.3790   -2.2980    0.2280 c         1 MOL      0.273976
    147 O21        -5.8260   -3.2950    0.8590 o         1 MOL     -0.499342
    148 C50        -5.5730   -2.1610   -2.2570 c3        1 MOL     -0.140982
    149 C51        -5.4750   -3.7270   -2.3600 c3        1 MOL     -0.196136
    150 C52        -5.1060   -4.2010   -3.7490 c         1 MOL      0.721737
    151 O22        -5.9490   -4.7730   -4.4780 o         1 MOL     -0.748934
    152 O23        -3.8920   -4.0550   -4.0930 o         1 MOL     -0.748934
    153 H65        -5.7950    0.1510   -1.9440 hn        1 MOL      0.226141
    154 H66        -7.1640   -1.9960   -0.8510 h1        1 MOL      0.093562
    155 H67        -4.5890   -1.7200   -2.4170 hc        1 MOL      0.067076
    156 H68        -6.2590   -1.8610   -3.0470 hc        1 MOL      0.067076
    157 H69        -6.4020   -4.2430   -2.0930 hc        1 MOL      0.040564
    158 H70        -4.7370   -4.0530   -1.6240 hc        1 MOL      0.040564
    159 N14        -4.2630   -1.6450    0.5960 n         1 MOL     -0.068966
    160 C53        -3.4310   -1.9190    1.7360 c3        1 MOL     -0.185098
    161 C54        -3.9960   -1.4260    3.1030 c         1 MOL      0.519815
    162 O24        -3.6500   -1.9630    4.1280 o         1 MOL     -0.575952
    163 C55        -2.0390   -1.3560    1.4290 c3        1 MOL      0.318133
    164 C56        -1.5170   -1.7210    0.0190 c3        1 MOL     -0.216437
    165 C57        -0.0780   -1.1710   -0.2200 c         1 MOL      0.612915
    166 O25         0.9580   -1.8510   -0.4860 o         1 MOL     -0.696643
    167 O26         0.0740    0.0630   -0.3080 o         1 MOL     -0.696643
    168 H71        -3.9940   -0.8060    0.1000 hn        1 MOL      0.238149
    169 H72        -3.4250   -3.0140    1.7360 h1        1 MOL      0.087698
    170 H73        -1.3330   -1.7460    2.1780 hc        1 MOL     -0.026678
    171 H74        -2.0870   -0.2890    1.6510 hc        1 MOL     -0.026678
    172 H75        -2.1560   -1.3860   -0.7990 hc        1 MOL      0.075420
    173 H76        -1.4220   -2.7980   -0.0780 hc        1 MOL      0.075420
    174 N15        -4.9090   -0.4970    3.1510 n         1 MOL     -0.007548
    175 C58        -5.6630    0.0150    4.2960 c3        1 MOL     -0.360271
    176 H77        -5.1240   -0.2100    5.2170 h1        1 MOL      0.116793
    177 H78        -5.7830    1.0940    4.2010 h1        1 MOL      0.116793
    178 H79        -6.6450   -0.4590    4.3260 h1        1 MOL      0.116793
    179 H80        -5.1530   -0.1110    2.2500 hn        1 MOL      0.044159
    180 Ca1         2.4250    0.2200   -1.1260 Ca        1 MOL      1.769867
    181 O27         1.0750    0.0970   -3.9050 oh        1 MOL     -0.872948
    182 H81         1.7590   -0.5530   -4.0850 ho        1 MOL      0.410955
    183 H82         0.5090    0.0710   -4.6770 ho        1 MOL      0.410955
    184 O28         1.0940    2.3860   -2.2910 oh        1 MOL     -0.872948
    185 H83         0.8960    1.7520   -2.9830 ho        1 MOL      0.410955
    186 H84         1.6680    3.0240   -2.7070 ho        1 MOL      0.410955
@<TRIPOS>BOND
     1    1    2 1   
     2    1    4 1   
     3    1    5 1   
     4    1    6 1   
     5    2    3 2   
     6    2    7 1   
     7    7    8 1   
     8    7   15 1   
     9    8    9 1   
    10    8   11 1   
    11    8   16 1   
    12    9   10 2   
    13    9   19 1   
    14   11   12 1   
    15   11   17 1   
    16   11   18 1   
    17   12   13 1   
    18   12   14 1   
    19   19   20 1   
    20   19   27 1   
    21   20   21 1   
    22   20   23 1   
    23   20   28 1   
    24   21   22 2   
    25   21   38 1   
    26   23   24 1   
    27   23   25 1   
    28   23   29 1   
    29   24   26 1   
    30   24   30 1   
    31   24   31 1   
    32   25   32 1   
    33   25   33 1   
    34   25   34 1   
    35   26   35 1   
    36   26   36 1   
    37   26   37 1   
    38   38   39 1   
    39   38   46 1   
    40   39   40 1   
    41   39   42 1   
    42   39   47 1   
    43   40   41 2   
    44   40   50 1   
    45   42   43 1   
    46   42   48 1   
    47   42   49 1   
    48   43   44 1   
    49   43   45 1   
    50   50   51 1   
    51   50   54 1   
    52   51   52 1   
    53   51   55 1   
    54   51   56 1   
    55   52   53 2   
    56   52   57 1   
    57   57   58 1   
    58   57   65 1   
    59   58   59 1   
    60   58   61 1   
    61   58   66 1   
    62   59   60 2   
    63   59   69 1   
    64   61   62 1   
    65   61   67 1   
    66   61   68 1   
    67   62   63 1   
    68   62   64 1   
    69   69   70 1   
    70   69   73 1   
    71   70   71 1   
    72   70   74 1   
    73   70   75 1   
    74   71   72 2   
    75   71   76 1   
    76   76   77 1   
    77   76   85 1   
    78   77   78 1   
    79   77   80 1   
    80   77   86 1   
    81   78   79 2   
    82   78   93 1   
    83   80   81 1   
    84   80   87 1   
    85   80   88 1   
    86   81   82 1   
    87   81   89 1   
    88   81   90 1   
    89   82   83 1   
    90   82   84 2   
    91   83   91 1   
    92   83   92 1   
    93   93   94 1   
    94   93  100 1   
    95   94   95 1   
    96   94   97 1   
    97   94  101 1   
    98   95   96 2   
    99   95  109 1   
   100   97   98 1   
   101   97   99 1   
   102   97  102 1   
   103   98  103 1   
   104   98  104 1   
   105   98  105 1   
   106   99  106 1   
   107   99  107 1   
   108   99  108 1   
   109  109  110 1   
   110  109  117 1   
   111  110  111 1   
   112  110  113 1   
   113  110  118 1   
   114  111  112 2   
   115  111  123 1   
   116  113  114 1   
   117  113  119 1   
   118  113  120 1   
   119  114  115 1   
   120  114  116 2   
   121  115  121 1   
   122  115  122 1   
   123  123  124 1   
   124  123  135 1   
   125  124  125 1   
   126  124  127 1   
   127  124  136 1   
   128  125  126 2   
   129  125  144 1   
   130  127  128 1   
   131  127  137 1   
   132  127  138 1   
   133  128  129 ar  
   134  128  130 ar  
   135  129  131 ar  
   136  129  139 1   
   137  130  132 ar  
   138  130  140 1   
   139  131  133 ar  
   140  131  141 1   
   141  132  133 ar  
   142  132  142 1   
   143  133  134 1   
   144  134  143 1   
   145  144  145 1   
   146  144  153 1   
   147  145  146 1   
   148  145  148 1   
   149  145  154 1   
   150  146  147 2   
   151  146  159 1   
   152  148  149 1   
   153  148  155 1   
   154  148  156 1   
   155  149  150 1   
   156  149  157 1   
   157  149  158 1   
   158  150  151 1   
   159  150  152 1   
   160  159  160 1   
   161  159  168 1   
   162  160  161 1   
   163  160  163 1   
   164  160  169 1   
   165  161  162 2   
   166  161  174 1   
   167  163  164 1   
   168  163  170 1   
   169  163  171 1   
   170  164  165 1   
   171  164  172 1   
   172  164  173 1   
   173  165  166 1   
   174  165  167 1   
   175  174  175 1   
   176  174  179 1   
   177  175  176 1   
   178  175  177 1   
   179  175  178 1   
   180  181  182 1   
   181  181  183 1   
   182  184  185 1   
   183  184  186 1   
@<TRIPOS>SUBSTRUCTURE
     1 MOL         1 TEMP              0 ****  ****    0 ROOT
