@<TRIPOS>MOLECULE
MOL
  175   173     1     0     0
SMALL
resp


@<TRIPOS>ATOM
      1 C1          0.2700    3.6100    5.6660 c3        1 MOL     -0.374686
      2 C2         -0.5030    3.7760    4.3470 c         1 MOL      0.720607
      3 O1          0.1120    4.3080    3.4370 o         1 MOL     -0.521014
      4 H1         -0.0340    4.3880    6.3650 hc        1 MOL      0.090509
      5 H2          0.0520    2.6320    6.0950 hc        1 MOL      0.090509
      6 H3          1.3400    3.6930    5.4740 hc        1 MOL      0.090509
      7 N1         -1.7630    3.3360    4.1860 n         1 MOL     -0.699748
      8 C3         -2.4310    3.2990    2.8940 c3        1 MOL      0.300735
      9 C4         -2.5260    4.5250    1.9920 c         1 MOL      0.508358
     10 O2         -2.6490    5.6510    2.5170 o         1 MOL     -0.569564
     11 C5         -3.9010    2.8130    3.1460 c3        1 MOL     -0.274775
     12 C6         -4.3340    1.9550    1.9390 c         1 MOL      0.783134
     13 O3         -3.6620    1.8320    0.9030 o         1 MOL     -0.707908
     14 O4         -5.4130    1.3280    2.0150 o         1 MOL     -0.707908
     15 H4         -2.3140    2.8930    4.9140 hn        1 MOL      0.338416
     16 H5         -1.9120    2.5840    2.2610 h1        1 MOL     -0.015071
     17 H6         -4.5720    3.6570    3.2790 hc        1 MOL      0.061488
     18 H7         -3.9780    2.2090    4.0540 hc        1 MOL      0.061488
     19 N2         -2.5240    4.3970    0.6570 n         1 MOL     -0.584230
     20 C7         -2.5660    5.4780   -0.3480 c3        1 MOL      0.440579
     21 C8         -3.4870    5.1160   -1.5570 c         1 MOL      0.374352
     22 O5         -3.5240    5.8570   -2.5580 o         1 MOL     -0.531753
     23 C9         -1.2220    5.9070   -0.8140 c3        1 MOL     -0.256523
     24 H8         -2.5650    3.4930    0.2160 hn        1 MOL      0.404339
     25 H9         -3.0620    6.3560    0.0710 h1        1 MOL     -0.011554
     26 H10        -0.9310    5.4070   -1.7470 hc        1 MOL      0.058259
     27 H11        -1.2170    6.9860   -0.9970 hc        1 MOL      0.058259
     28 H12        -0.4210    5.6060   -0.1460 hc        1 MOL      0.058259
     29 N3         -4.2100    3.9450   -1.5080 n         1 MOL     -0.367586
     30 C10        -4.8820    3.4500   -2.7040 c3        1 MOL      0.049982
     31 C11        -6.1840    2.6000   -2.4210 c         1 MOL      0.472496
     32 O6         -6.9760    2.5530   -3.3830 o         1 MOL     -0.566812
     33 C12        -3.8720    2.5910   -3.5620 c3        1 MOL     -0.115955
     34 C13        -3.2430    1.5330   -2.7520 c         1 MOL      0.710032
     35 O7         -1.9950    1.4540   -2.6660 o         1 MOL     -0.715416
     36 O8         -3.8710    0.7590   -1.9820 o         1 MOL     -0.715416
     37 H13        -4.2370    3.4210   -0.6460 hn        1 MOL      0.109258
     38 H14        -5.2030    4.2840   -3.3280 h1        1 MOL      0.084630
     39 H15        -3.0410    3.2340   -3.8390 hc        1 MOL      0.045714
     40 H16        -4.2410    2.2840   -4.5350 hc        1 MOL      0.045714
     41 N4         -6.3750    2.0320   -1.2410 n         1 MOL     -0.266728
     42 C14        -7.6010    1.2970   -0.7620 c3        1 MOL     -0.354245
     43 C15        -7.4740   -0.2290   -0.9440 c         1 MOL      0.606701
     44 O9         -8.2520   -1.0450   -0.4770 o         1 MOL     -0.643441
     45 H17        -5.6240    1.8700   -0.5930 hn        1 MOL      0.257724
     46 H18        -8.4920    1.6080   -1.3140 h1        1 MOL      0.164907
     47 H19        -7.7230    1.5400    0.2940 h1        1 MOL      0.164907
     48 N5         -6.3990   -0.7070   -1.5220 n         1 MOL     -0.252880
     49 C16        -6.2330   -2.1120   -1.9100 c3        1 MOL      0.006908
     50 C17        -6.0520   -3.3080   -0.9480 c         1 MOL      0.505974
     51 O10        -6.0070   -4.4690   -1.2960 o         1 MOL     -0.541754
     52 C18        -5.1110   -2.1630   -2.9580 c3        1 MOL     -0.233312
     53 C19        -3.6760   -2.1380   -2.5110 c         1 MOL      0.695084
     54 N6         -2.7830   -1.9820   -3.4000 n         1 MOL     -0.685565
     55 O11        -3.2970   -2.0850   -1.3790 o         1 MOL     -0.535797
     56 H20        -5.6500   -0.0640   -1.7550 hn        1 MOL      0.174945
     57 H21        -7.1740   -2.4100   -2.3760 h1        1 MOL      0.082893
     58 H22        -5.2680   -1.3210   -3.6380 hc        1 MOL      0.049091
     59 H23        -5.3100   -3.1060   -3.4500 hc        1 MOL      0.049091
     60 H24        -3.1330   -1.7590   -4.3210 hn        1 MOL      0.316529
     61 H25        -1.8290   -1.7160   -3.1950 hn        1 MOL      0.316529
     62 N7         -6.1680   -2.9540    0.2850 n         1 MOL     -0.224524
     63 C20        -6.1200   -3.8510    1.4320 c3        1 MOL     -0.111872
     64 C21        -4.7870   -4.5700    1.5470 c         1 MOL      0.603007
     65 O12        -4.8030   -5.6250    2.0690 o         1 MOL     -0.595250
     66 H26        -6.0190   -1.9810    0.5270 hn        1 MOL      0.307062
     67 H27        -6.9820   -4.5170    1.3730 h1        1 MOL      0.063226
     68 H28        -6.2160   -3.2360    2.3270 h1        1 MOL      0.063226
     69 N8         -3.6760   -3.9730    1.1010 n         1 MOL     -0.269775
     70 C22        -2.3070   -4.5480    1.1970 c3        1 MOL     -0.035395
     71 C23        -1.2310   -3.4670    1.2810 c         1 MOL      0.343644
     72 O13        -1.4290   -2.3960    0.7060 o         1 MOL     -0.328292
     73 C24        -1.9010   -5.4120   -0.0220 c3        1 MOL      0.390462
     74 C25        -2.5300   -6.7440   -0.1450 c3        1 MOL     -0.637625
     75 O14        -2.2790   -4.8320   -1.2750 oh        1 MOL     -0.532176
     76 H29        -3.9250   -3.1260    0.6040 hn        1 MOL      0.051207
     77 H30        -2.2560   -5.2320    2.0430 h1        1 MOL      0.081003
     78 H31        -0.8150   -5.3890   -0.1010 h1        1 MOL      0.002338
     79 H32        -1.9740   -3.9200   -1.2550 ho        1 MOL      0.316533
     80 H33        -2.3160   -7.3060   -1.0570 hc        1 MOL      0.167935
     81 H34        -2.2360   -7.2700    0.7670 hc        1 MOL      0.167935
     82 H35        -3.6130   -6.7400   -0.1730 hc        1 MOL      0.167935
     83 N9         -0.1070   -3.8070    1.9220 n         1 MOL     -0.368484
     84 C26         1.1760   -3.0500    1.7940 c3        1 MOL     -0.173967
     85 C27         1.8520   -3.1170    0.3940 c         1 MOL      0.742328
     86 O15         2.3580   -4.1590    0.0150 o         1 MOL     -0.609458
     87 C28         2.0830   -3.3920    3.0110 c3        1 MOL      0.070566
     88 C29         1.3580   -2.7320    4.2120 c3        1 MOL      0.262820
     89 C30         3.4890   -2.9780    2.9690 c3        1 MOL     -0.199516
     90 C31         1.9710   -2.9740    5.6670 c3        1 MOL     -0.207927
     91 H36        -0.0030   -4.7800    2.1700 hn        1 MOL      0.252537
     92 H37         0.8390   -2.0180    1.8640 h1        1 MOL      0.063449
     93 H38         2.1540   -4.4560    3.2300 hc        1 MOL      0.017971
     94 H39         0.3640   -3.1660    4.2680 hc        1 MOL     -0.067851
     95 H40         1.2400   -1.6530    4.0760 hc        1 MOL     -0.067851
     96 H41         4.0240   -3.5190    3.7450 hc        1 MOL      0.042467
     97 H42         3.8810   -3.2940    2.0030 hc        1 MOL      0.042467
     98 H43         3.6240   -1.9100    3.1180 hc        1 MOL      0.042467
     99 H44         1.8940   -4.0190    5.9450 hc        1 MOL      0.035022
    100 H45         2.9970   -2.6030    5.6760 hc        1 MOL      0.035022
    101 H46         1.4030   -2.3630    6.3610 hc        1 MOL      0.035022
    102 N10         1.7770   -2.0480   -0.4020 n         1 MOL     -0.434082
    103 C32         2.6910   -1.7610   -1.4600 c3        1 MOL      0.232152
    104 C33         4.0970   -1.3870   -0.8880 c         1 MOL      0.264375
    105 O16         4.2400   -0.9020    0.2340 o         1 MOL     -0.253712
    106 C34         2.0490   -0.7900   -2.4460 c3        1 MOL     -0.362825
    107 C35         0.5670   -1.1340   -2.7580 c         1 MOL      0.737444
    108 O17        -0.3460   -0.9760   -1.8740 o         1 MOL     -0.655242
    109 O18         0.2750   -1.5360   -3.9250 o         1 MOL     -0.655242
    110 H47         1.1820   -1.3020   -0.0720 hn        1 MOL      0.141667
    111 H48         2.9040   -2.7240   -1.9380 h1        1 MOL      0.026485
    112 H49         2.6030   -0.6470   -3.3700 hc        1 MOL      0.102192
    113 H50         1.9780    0.1210   -1.8530 hc        1 MOL      0.102192
    114 N11         5.1670   -1.5450   -1.7070 n         1 MOL     -0.401861
    115 C36         6.4780   -1.1120   -1.3740 c3        1 MOL      0.198096
    116 C37         6.6600    0.4220   -1.2190 c         1 MOL      0.351708
    117 O19         7.4770    0.8750   -0.3660 o         1 MOL     -0.491947
    118 C38         7.4590   -1.7570   -2.3590 c3        1 MOL     -0.437819
    119 C39         8.9010   -1.4460   -2.0240 ca        1 MOL      0.280517
    120 C40         9.6290   -2.3010   -1.1580 ca        1 MOL     -0.293581
    121 C41         9.5840   -0.4140   -2.6310 ca        1 MOL     -0.293581
    122 C42        11.0420   -2.1180   -0.9290 ca        1 MOL      0.023182
    123 C43        11.0210   -0.2070   -2.4020 ca        1 MOL      0.023182
    124 C44        11.6950   -1.1230   -1.6510 ca        1 MOL     -0.256533
    125 H51         5.0440   -2.0480   -2.5760 hn        1 MOL      0.271554
    126 H52         6.5850   -1.4820   -0.3510 h1        1 MOL      0.096855
    127 H53         7.2400   -1.3150   -3.3350 hc        1 MOL      0.138976
    128 H54         7.3350   -2.8490   -2.3210 hc        1 MOL      0.138976
    129 H55         9.1720   -3.1010   -0.6130 ha        1 MOL      0.138614
    130 H56         9.0470    0.2190   -3.3160 ha        1 MOL      0.138614
    131 H57        11.6340   -2.7420   -0.2720 ha        1 MOL      0.083859
    132 H58        11.5870    0.5330   -2.9390 ha        1 MOL      0.083859
    133 H59        12.7510   -1.0010   -1.4560 ha        1 MOL      0.124758
    134 N12         5.8750    1.2950   -1.8980 n         1 MOL     -0.021402
    135 C45         5.8480    2.6430   -1.4410 c3        1 MOL     -0.046826
    136 C46         5.3390    2.9840   -0.0690 c         1 MOL      0.380025
    137 O20         5.4550    4.0980    0.3450 o         1 MOL     -0.518719
    138 C47         5.1060    3.3680   -2.6430 c3        1 MOL     -0.164080
    139 C48         5.3390    2.4900   -3.7980 c3        1 MOL      0.205442
    140 C49         5.1310    1.1070   -3.1630 c3        1 MOL     -0.107231
    141 H60         6.8990    2.9240   -1.4080 h1        1 MOL      0.086735
    142 H61         4.0330    3.4640   -2.4710 hc        1 MOL      0.065506
    143 H62         5.5190    4.3570   -2.8280 hc        1 MOL      0.065506
    144 H63         4.7820    2.6590   -4.7140 hc        1 MOL     -0.036840
    145 H64         6.3890    2.5470   -4.0840 hc        1 MOL     -0.036840
    146 H65         4.0600    1.0280   -3.0050 h1        1 MOL      0.052476
    147 H66         5.5200    0.3570   -3.8600 h1        1 MOL      0.052476
    148 N13         4.7000    2.0320    0.6070 n         1 MOL     -0.126079
    149 C50         4.1180    2.1110    2.0000 c3        1 MOL      0.056764
    150 C51         4.9440    1.3410    3.0110 c         1 MOL      0.398616
    151 O21         5.2880    1.7720    4.1260 o         1 MOL     -0.551605
    152 C52         2.6790    1.6880    1.9730 c3        1 MOL     -0.017002
    153 C53         1.8510    2.2210    0.7530 c3        1 MOL     -0.104606
    154 C54         0.4870    1.5570    0.5640 c         1 MOL      0.644451
    155 O22        -0.4080    2.1490   -0.0670 o         1 MOL     -0.707016
    156 O23         0.3100    0.3940    1.0570 o         1 MOL     -0.707016
    157 H67         4.5770    1.1200    0.1780 hn        1 MOL      0.058885
    158 H68         4.1300    3.1570    2.3110 h1        1 MOL      0.063163
    159 H69         2.1800    2.1170    2.8450 hc        1 MOL      0.021631
    160 H70         2.8270    0.6100    2.0710 hc        1 MOL      0.021631
    161 H71         2.3010    2.1320   -0.2310 hc        1 MOL      0.074921
    162 H72         1.7340    3.2800    0.9810 hc        1 MOL      0.074921
    163 N14         5.6010    0.3000    2.4700 n         1 MOL     -0.091473
    164 C55         6.6080   -0.5160    3.2640 c3        1 MOL     -0.025854
    165 H73         6.6370   -0.1550    4.2920 h1        1 MOL      0.037557
    166 H74         6.3140   -1.5660    3.2550 h1        1 MOL      0.037557
    167 H75         7.5960   -0.4120    2.8150 h1        1 MOL      0.037557
    168 H76         5.3820    0.0160    1.5240 hn        1 MOL      0.015078
    169 Ca1        -2.0630    0.0790   -0.2000 Ca        1 MOL      1.684615
    170 O24        -4.3040   -1.0130    1.4220 oh        1 MOL     -0.809839
    171 H77        -3.6930   -1.0910    2.1590 ho        1 MOL      0.386743
    172 H78        -4.7720   -0.1930    1.5780 ho        1 MOL      0.386743
    173 O25        -1.8900   -0.1610    2.6290 oh        1 MOL     -0.809839
    174 H79        -1.8850   -0.0700    3.5840 ho        1 MOL      0.386743
    175 H80        -1.0050    0.1020    2.3630 ho        1 MOL      0.386743
@<TRIPOS>BOND
     1    1    2 1   
     2    1    4 1   
     3    1    5 1   
     4    1    6 1   
     5    2    3 2   
     6    2    7 1   
     7    7    8 1   
     8    7   15 1   
     9    8    9 1   
    10    8   11 1   
    11    8   16 1   
    12    9   10 2   
    13    9   19 1   
    14   11   12 1   
    15   11   17 1   
    16   11   18 1   
    17   12   13 1   
    18   12   14 1   
    19   19   20 1   
    20   19   24 1   
    21   20   21 1   
    22   20   23 1   
    23   20   25 1   
    24   21   22 2   
    25   21   29 1   
    26   23   26 1   
    27   23   27 1   
    28   23   28 1   
    29   29   30 1   
    30   29   37 1   
    31   30   31 1   
    32   30   33 1   
    33   30   38 1   
    34   31   32 2   
    35   31   41 1   
    36   33   34 1   
    37   33   39 1   
    38   33   40 1   
    39   34   35 1   
    40   34   36 1   
    41   41   42 1   
    42   41   45 1   
    43   42   43 1   
    44   42   46 1   
    45   42   47 1   
    46   43   44 2   
    47   43   48 1   
    48   48   49 1   
    49   48   56 1   
    50   49   50 1   
    51   49   52 1   
    52   49   57 1   
    53   50   51 2   
    54   50   62 1   
    55   52   53 1   
    56   52   58 1   
    57   52   59 1   
    58   53   54 1   
    59   53   55 2   
    60   54   60 1   
    61   54   61 1   
    62   62   63 1   
    63   62   66 1   
    64   63   64 1   
    65   63   67 1   
    66   63   68 1   
    67   64   65 2   
    68   64   69 1   
    69   69   70 1   
    70   69   76 1   
    71   70   71 1   
    72   70   73 1   
    73   70   77 1   
    74   71   72 2   
    75   71   83 1   
    76   73   74 1   
    77   73   75 1   
    78   73   78 1   
    79   74   80 1   
    80   74   81 1   
    81   74   82 1   
    82   75   79 1   
    83   83   84 1   
    84   83   91 1   
    85   84   85 1   
    86   84   87 1   
    87   84   92 1   
    88   85   86 2   
    89   85  102 1   
    90   87   88 1   
    91   87   89 1   
    92   87   93 1   
    93   88   90 1   
    94   88   94 1   
    95   88   95 1   
    96   89   96 1   
    97   89   97 1   
    98   89   98 1   
    99   90   99 1   
   100   90  100 1   
   101   90  101 1   
   102  102  103 1   
   103  102  110 1   
   104  103  104 1   
   105  103  106 1   
   106  103  111 1   
   107  104  105 2   
   108  104  114 1   
   109  106  107 1   
   110  106  112 1   
   111  106  113 1   
   112  107  108 1   
   113  107  109 1   
   114  114  115 1   
   115  114  125 1   
   116  115  116 1   
   117  115  118 1   
   118  115  126 1   
   119  116  117 2   
   120  116  134 1   
   121  118  119 1   
   122  118  127 1   
   123  118  128 1   
   124  119  120 ar  
   125  119  121 ar  
   126  120  122 ar  
   127  120  129 1   
   128  121  123 ar  
   129  121  130 1   
   130  122  124 ar  
   131  122  131 1   
   132  123  124 ar  
   133  123  132 1   
   134  124  133 1   
   135  134  135 1   
   136  134  140 1   
   137  135  136 1   
   138  135  138 1   
   139  135  141 1   
   140  136  137 2   
   141  136  148 1   
   142  138  139 1   
   143  138  142 1   
   144  138  143 1   
   145  139  140 1   
   146  139  144 1   
   147  139  145 1   
   148  140  146 1   
   149  140  147 1   
   150  148  149 1   
   151  148  157 1   
   152  149  150 1   
   153  149  152 1   
   154  149  158 1   
   155  150  151 2   
   156  150  163 1   
   157  152  153 1   
   158  152  159 1   
   159  152  160 1   
   160  153  154 1   
   161  153  161 1   
   162  153  162 1   
   163  154  155 1   
   164  154  156 1   
   165  163  164 1   
   166  163  168 1   
   167  164  165 1   
   168  164  166 1   
   169  164  167 1   
   170  170  171 1   
   171  170  172 1   
   172  173  174 1   
   173  173  175 1   
@<TRIPOS>SUBSTRUCTURE
     1 MOL         1 TEMP              0 ****  ****    0 ROOT
