@<TRIPOS>MOLECULE
MOL
  189   185     1     0     0
SMALL
resp


@<TRIPOS>ATOM
      1 C1          0.8650    4.3430   -4.9700 c3        1 MOL     -0.341068
      2 C2          0.8620    3.5630   -3.6540 c         1 MOL      0.834860
      3 O1         -0.1390    3.5730   -2.9370 o         1 MOL     -0.649384
      4 H1          1.4370    3.7930   -5.7170 hc        1 MOL      0.077883
      5 H2         -0.1600    4.4710   -5.3210 hc        1 MOL      0.077883
      6 H3          1.3200    5.3210   -4.8130 hc        1 MOL      0.077883
      7 N1          2.0400    2.9800   -3.3120 n         1 MOL     -0.705198
      8 C3          2.3380    2.4920   -2.0370 c3        1 MOL     -0.042926
      9 C4          2.6800    3.6470   -1.1430 c         1 MOL      0.834073
     10 O2          3.3870    4.5350   -1.5560 o         1 MOL     -0.632977
     11 C5          3.4050    1.4400   -2.3590 c3        1 MOL     -0.163778
     12 C6          3.9880    0.6540   -1.2260 c         1 MOL      0.849480
     13 O3          3.4530    0.7820   -0.1010 o         1 MOL     -0.738847
     14 O4          5.0930    0.0330   -1.3460 o         1 MOL     -0.738847
     15 H4          2.8180    2.9880   -3.9610 hn        1 MOL      0.363588
     16 H5          1.4110    2.0350   -1.7200 h1        1 MOL      0.081870
     17 H6          4.2330    1.9480   -2.8510 hc        1 MOL      0.044620
     18 H7          2.9340    0.7930   -3.0990 hc        1 MOL      0.044620
     19 N2          2.1670    3.6160    0.1070 n         1 MOL     -0.542959
     20 C7          2.1530    4.8470    0.9360 c3        1 MOL      0.071531
     21 C8          2.8600    4.7060    2.2810 c         1 MOL      0.407152
     22 O5          3.1860    5.6700    2.9570 o         1 MOL     -0.545627
     23 C9          0.6970    5.3690    1.1340 c3        1 MOL     -0.055447
     24 C10        -0.2690    5.6290   -0.1390 c3        1 MOL     -0.182091
     25 C11         0.3280    6.7220   -1.0370 c3        1 MOL     -0.248443
     26 C12        -0.6520    7.0570   -2.2030 c3        1 MOL      0.164141
     27 N3         -0.2260    8.2350   -2.9990 n4        1 MOL     -0.391868
     28 H8          1.5810    2.8150    0.2750 hn        1 MOL      0.397853
     29 H9          2.6680    5.6220    0.3750 h1        1 MOL      0.073272
     30 H10         0.8610    6.2780    1.7040 hc        1 MOL      0.041635
     31 H11         0.1870    4.6370    1.7580 hc        1 MOL      0.041635
     32 H12        -1.2540    5.8000    0.2750 hc        1 MOL      0.105292
     33 H13        -0.4540    4.6730   -0.6190 hc        1 MOL      0.105292
     34 H14         1.2770    6.3360   -1.4020 hc        1 MOL      0.094843
     35 H15         0.6640    7.6340   -0.5310 hc        1 MOL      0.094843
     36 H16        -1.6600    7.2260   -1.8140 hx        1 MOL      0.054991
     37 H17        -0.6110    6.1430   -2.8120 hx        1 MOL      0.054991
     38 H18         0.7640    8.1410   -3.1500 hn        1 MOL      0.329695
     39 H19        -0.6520    8.2780   -3.9150 hn        1 MOL      0.329695
     40 H20        -0.3820    9.0720   -2.4600 hn        1 MOL      0.329695
     41 N4          3.1440    3.4700    2.6830 n         1 MOL     -0.162414
     42 C13         4.0000    3.0870    3.8190 c3        1 MOL     -0.103337
     43 C14         5.3080    2.4830    3.3920 c         1 MOL      0.535425
     44 O6          6.3170    2.6640    4.1540 o         1 MOL     -0.549687
     45 C15         3.2360    2.2170    4.7810 c3        1 MOL     -0.003414
     46 C16         2.6610    0.8850    4.2350 c         1 MOL      0.622000
     47 O7          2.2620    0.8500    3.0770 o         1 MOL     -0.653197
     48 O8          2.7080   -0.1210    4.9930 o         1 MOL     -0.653197
     49 H21         2.6790    2.7560    2.1420 hn        1 MOL      0.071920
     50 H22         4.2900    4.0510    4.2340 h1        1 MOL      0.102249
     51 H23         2.4170    2.7620    5.2640 hc        1 MOL      0.013723
     52 H24         3.8610    2.0300    5.6490 hc        1 MOL      0.013723
     53 N5          5.4350    2.0170    2.1280 n         1 MOL     -0.097304
     54 C17         6.6900    1.5140    1.5100 c3        1 MOL     -0.545967
     55 C18         7.0210    0.1490    2.0060 c         1 MOL      0.773308
     56 O9          7.7670   -0.0680    2.9740 o         1 MOL     -0.563752
     57 H25         4.6080    1.9110    1.5520 hn        1 MOL      0.093169
     58 H26         7.3970    2.2900    1.7850 h1        1 MOL      0.190857
     59 H27         6.5490    1.5730    0.4310 h1        1 MOL      0.190857
     60 N6          6.4600   -0.8190    1.2900 n         1 MOL     -0.510418
     61 C19         6.6930   -2.2400    1.4900 c3        1 MOL     -0.054831
     62 C20         6.7740   -3.1120    0.2070 c         1 MOL      0.469166
     63 O10         7.1400   -4.3010    0.2270 o         1 MOL     -0.551135
     64 C21         5.6260   -2.7870    2.3600 c3        1 MOL     -0.091245
     65 C22         4.2130   -2.4760    1.9590 c         1 MOL      0.642608
     66 O11         3.8400   -2.6790    0.7750 o         1 MOL     -0.644697
     67 O12         3.2780   -2.4240    2.7940 o         1 MOL     -0.644697
     68 H28         5.8470   -0.4060    0.5980 hn        1 MOL      0.196230
     69 H29         7.7150   -2.3040    1.8800 h1        1 MOL      0.118920
     70 H30         5.7330   -2.3610    3.3570 hc        1 MOL      0.058830
     71 H31         5.7290   -3.8680    2.4740 hc        1 MOL      0.058830
     72 N7          6.4820   -2.5600   -0.9400 n         1 MOL     -0.217361
     73 C23         6.6230   -3.2530   -2.2800 c3        1 MOL     -0.311574
     74 C24         5.3510   -3.9090   -2.7430 c         1 MOL      0.638782
     75 O13         5.3910   -4.8460   -3.5300 o         1 MOL     -0.578258
     76 H32         6.1740   -1.5960   -0.9470 hn        1 MOL      0.293020
     77 H33         7.2890   -4.1070   -2.1320 h1        1 MOL      0.142446
     78 H34         6.9060   -2.5700   -3.0770 h1        1 MOL      0.142446
     79 N8          4.2150   -3.4800   -2.1780 n         1 MOL     -0.368381
     80 C25         2.8670   -4.1110   -2.3410 c3        1 MOL     -0.253762
     81 C26         1.7610   -3.0310   -2.1790 c         1 MOL      0.737544
     82 O14         1.8770   -2.1210   -1.3140 o         1 MOL     -0.691688
     83 C27         2.7030   -5.2670   -1.3390 c3        1 MOL      0.425238
     84 C28         3.7450   -6.3390   -1.5200 c3        1 MOL     -0.640973
     85 O15         2.7320   -4.8860    0.0230 oh        1 MOL     -0.575660
     86 H35         4.3600   -2.7860   -1.4540 hn        1 MOL      0.235262
     87 H36         2.7080   -4.4980   -3.3420 h1        1 MOL      0.113493
     88 H37         1.6940   -5.6370   -1.5230 h1        1 MOL     -0.004250
     89 H38         3.2900   -4.1080    0.0130 ho        1 MOL      0.422670
     90 H39         3.3490   -7.2480   -1.0830 hc        1 MOL      0.178389
     91 H40         3.9570   -6.5020   -2.5780 hc        1 MOL      0.178389
     92 H41         4.6490   -6.1050   -0.9690 hc        1 MOL      0.178389
     93 N9          0.6310   -3.2550   -2.8980 n         1 MOL     -0.595318
     94 C29        -0.5010   -2.3400   -2.6820 c3        1 MOL      0.138627
     95 C30        -1.6480   -3.1330   -1.9100 c         1 MOL      0.535335
     96 O16        -1.9260   -4.2870   -2.3040 o         1 MOL     -0.562449
     97 C31        -0.8380   -1.6400   -3.9990 c3        1 MOL     -0.085383
     98 C32         0.2960   -0.6770   -4.3690 c3        1 MOL      0.274616
     99 C33        -2.1760   -0.8610   -3.9970 c3        1 MOL     -0.270263
    100 C34         0.4070   -0.2420   -5.8270 c3        1 MOL     -0.400154
    101 H42         0.5350   -3.9510   -3.6110 hn        1 MOL      0.332977
    102 H43        -0.1770   -1.5600   -1.9920 h1        1 MOL      0.002498
    103 H44        -0.9250   -2.4900   -4.6840 hc        1 MOL      0.044057
    104 H45         1.2490   -1.1530   -4.1600 hc        1 MOL     -0.004869
    105 H46         0.1880    0.1860   -3.7190 hc        1 MOL     -0.004869
    106 H47        -2.9460   -1.4200   -3.4600 hc        1 MOL      0.063401
    107 H48        -2.0870    0.0850   -3.4560 hc        1 MOL      0.063401
    108 H49        -2.3420   -0.6790   -5.0520 hc        1 MOL      0.063401
    109 H50        -0.4370    0.4400   -5.9560 hc        1 MOL      0.093631
    110 H51         1.3440    0.2550   -6.0680 hc        1 MOL      0.093631
    111 H52         0.3450   -1.1070   -6.4800 hc        1 MOL      0.093631
    112 N10        -2.2030   -2.5640   -0.8000 n         1 MOL     -0.217108
    113 C35        -3.4720   -2.8770   -0.0820 c3        1 MOL      0.014901
    114 C36        -4.6500   -2.2500   -0.6920 c         1 MOL      0.378643
    115 O17        -4.5130   -1.2090   -1.3840 o         1 MOL     -0.327565
    116 C37        -3.4650   -2.5900    1.4080 c3        1 MOL      0.195697
    117 C38        -2.1660   -2.9780    2.1360 c3        1 MOL     -0.526650
    118 O18        -3.5750   -1.2180    1.7790 oh        1 MOL     -0.586120
    119 H53        -1.7350   -1.7270   -0.4830 hn        1 MOL      0.178296
    120 H54        -3.5780   -3.9270   -0.3640 h1        1 MOL      0.054689
    121 H55        -4.2910   -3.1550    1.8540 h1        1 MOL      0.047560
    122 H56        -2.7040   -0.8400    1.9090 ho        1 MOL      0.433406
    123 H57        -1.3090   -2.4720    1.7050 hc        1 MOL      0.138498
    124 H58        -2.2220   -2.7970    3.2090 hc        1 MOL      0.138498
    125 H59        -1.9810   -4.0130    1.8440 hc        1 MOL      0.138498
    126 N11        -5.8430   -2.7300   -0.3360 n         1 MOL     -0.324280
    127 C39        -7.1190   -2.0350   -0.6190 c3        1 MOL     -0.171244
    128 C40        -7.2540   -0.6540   -0.1620 c         1 MOL      0.403830
    129 O19        -7.9790    0.0870   -0.8550 o         1 MOL     -0.525618
    130 C41        -8.2380   -2.8530    0.0340 c3        1 MOL      0.214137
    131 C42        -8.3360   -4.2820   -0.3520 c3        1 MOL     -0.345771
    132 O20        -8.1060   -2.8470    1.4400 oh        1 MOL     -0.584138
    133 H60        -5.9740   -3.4790    0.3320 hn        1 MOL      0.258184
    134 H61        -7.1980   -1.9850   -1.7030 h1        1 MOL      0.173656
    135 H62        -9.1950   -2.3810   -0.1830 h1        1 MOL      0.061810
    136 H63        -8.7360   -3.4930    1.7650 ho        1 MOL      0.393423
    137 H64        -7.3310   -4.6850   -0.3160 hc        1 MOL      0.106162
    138 H65        -9.0070   -4.8340    0.3170 hc        1 MOL      0.106162
    139 H66        -8.7810   -4.3360   -1.3440 hc        1 MOL      0.106162
    140 N12        -6.4870   -0.2290    0.8490 n         1 MOL      0.050074
    141 C43        -6.5720    1.1330    1.4160 c3        1 MOL     -0.205741
    142 C44        -5.7800    2.1590    0.7100 c         1 MOL      0.530871
    143 O21        -5.6520    3.2730    1.2250 o         1 MOL     -0.555648
    144 C45        -6.2400    1.0840    2.9290 c3        1 MOL      0.092295
    145 C46        -7.4020    0.3320    3.6080 c3        1 MOL     -0.134192
    146 C47        -7.0170   -0.9980    4.2980 c3        1 MOL     -0.068148
    147 C48        -8.0850   -1.6870    5.1960 c3        1 MOL      0.048413
    148 N13        -8.4720   -0.8110    6.3330 n4        1 MOL     -0.292468
    149 H67        -5.8320   -0.9060    1.2130 hn        1 MOL      0.197872
    150 H68        -7.5960    1.4780    1.2690 h1        1 MOL      0.115481
    151 H69        -6.0710    1.9880    3.5100 hc        1 MOL      0.038672
    152 H70        -5.3580    0.4860    3.1300 hc        1 MOL      0.038672
    153 H71        -8.1930   -0.0020    2.9320 hc        1 MOL      0.030245
    154 H72        -7.7880    1.1050    4.2770 hc        1 MOL      0.030245
    155 H73        -6.1300   -0.8350    4.9090 hc        1 MOL      0.057411
    156 H74        -6.7300   -1.7470    3.5570 hc        1 MOL      0.057411
    157 H75        -7.8040   -2.7090    5.4680 hx        1 MOL      0.069521
    158 H76        -8.9160   -1.7910    4.4930 hx        1 MOL      0.069521
    159 H77        -9.1310   -1.3250    6.8980 hn        1 MOL      0.294049
    160 H78        -7.7200   -0.5420    6.9530 hn        1 MOL      0.294049
    161 H79        -8.9630    0.0280    6.0410 hn        1 MOL      0.294049
    162 N14        -5.1780    1.7660   -0.4350 n         1 MOL     -0.195503
    163 C49        -4.2400    2.4530   -1.3210 c3        1 MOL     -0.152995
    164 C50        -4.7170    2.2920   -2.8260 c         1 MOL      0.412781
    165 O22        -4.1380    2.8700   -3.7630 o         1 MOL     -0.511010
    166 C51        -2.8490    1.6780   -1.0990 c3        1 MOL      0.143024
    167 C52        -2.2050    1.6530    0.2830 c3        1 MOL     -0.112343
    168 C53        -0.8860    0.9050    0.3020 c         1 MOL      0.592913
    169 O23        -0.7530   -0.3730    0.3140 o         1 MOL     -0.674924
    170 O24         0.1470    1.5830    0.4030 o         1 MOL     -0.674924
    171 H80        -5.3340    0.7950   -0.6420 hn        1 MOL     -0.067807
    172 H81        -4.0510    3.4750   -0.9950 h1        1 MOL      0.125139
    173 H82        -2.0950    2.1140   -1.7650 hc        1 MOL      0.057235
    174 H83        -2.9580    0.6510   -1.4430 hc        1 MOL      0.057235
    175 H84        -2.9500    1.2250    0.9650 hc        1 MOL      0.022999
    176 H85        -2.0770    2.6960    0.5690 hc        1 MOL      0.022999
    177 N15        -5.7110    1.4180   -3.0090 n         1 MOL     -0.232052
    178 C54        -6.0120    0.9240   -4.3560 c3        1 MOL     -0.141912
    179 H86        -5.3220    0.1180   -4.6090 h1        1 MOL      0.082944
    180 H87        -7.0340    0.5490   -4.3860 h1        1 MOL      0.082944
    181 H88        -5.9010    1.7360   -5.0740 h1        1 MOL      0.082944
    182 H89        -6.2160    1.0290   -2.2190 hn        1 MOL      0.239037
    183 Ca1         1.7300   -0.7890    1.0870 Ca        1 MOL      1.733997
    184 O25         0.8500   -3.4380    1.2660 oh        1 MOL     -0.840409
    185 H90         1.5040   -4.1190    1.0940 ho        1 MOL      0.388822
    186 H91         0.1910   -3.8860    1.8060 ho        1 MOL      0.388822
    187 O26         0.7880   -1.5800    3.5560 oh        1 MOL     -0.840409
    188 H92         0.6740   -2.5260    3.6580 ho        1 MOL      0.388822
    189 H93         1.5160   -1.3720    4.1470 ho        1 MOL      0.388822
@<TRIPOS>BOND
     1    1    2 1   
     2    1    4 1   
     3    1    5 1   
     4    1    6 1   
     5    2    3 2   
     6    2    7 1   
     7    7    8 1   
     8    7   15 1   
     9    8    9 1   
    10    8   11 1   
    11    8   16 1   
    12    9   10 2   
    13    9   19 1   
    14   11   12 1   
    15   11   17 1   
    16   11   18 1   
    17   12   13 1   
    18   12   14 1   
    19   19   20 1   
    20   19   28 1   
    21   20   21 1   
    22   20   23 1   
    23   20   29 1   
    24   21   22 2   
    25   21   41 1   
    26   23   24 1   
    27   23   30 1   
    28   23   31 1   
    29   24   25 1   
    30   24   32 1   
    31   24   33 1   
    32   25   26 1   
    33   25   34 1   
    34   25   35 1   
    35   26   27 1   
    36   26   36 1   
    37   26   37 1   
    38   27   38 1   
    39   27   39 1   
    40   27   40 1   
    41   41   42 1   
    42   41   49 1   
    43   42   43 1   
    44   42   45 1   
    45   42   50 1   
    46   43   44 2   
    47   43   53 1   
    48   45   46 1   
    49   45   51 1   
    50   45   52 1   
    51   46   47 1   
    52   46   48 1   
    53   53   54 1   
    54   53   57 1   
    55   54   55 1   
    56   54   58 1   
    57   54   59 1   
    58   55   56 2   
    59   55   60 1   
    60   60   61 1   
    61   60   68 1   
    62   61   62 1   
    63   61   64 1   
    64   61   69 1   
    65   62   63 2   
    66   62   72 1   
    67   64   65 1   
    68   64   70 1   
    69   64   71 1   
    70   65   66 1   
    71   65   67 1   
    72   72   73 1   
    73   72   76 1   
    74   73   74 1   
    75   73   77 1   
    76   73   78 1   
    77   74   75 2   
    78   74   79 1   
    79   79   80 1   
    80   79   86 1   
    81   80   81 1   
    82   80   83 1   
    83   80   87 1   
    84   81   82 2   
    85   81   93 1   
    86   83   84 1   
    87   83   85 1   
    88   83   88 1   
    89   84   90 1   
    90   84   91 1   
    91   84   92 1   
    92   85   89 1   
    93   93   94 1   
    94   93  101 1   
    95   94   95 1   
    96   94   97 1   
    97   94  102 1   
    98   95   96 2   
    99   95  112 1   
   100   97   98 1   
   101   97   99 1   
   102   97  103 1   
   103   98  100 1   
   104   98  104 1   
   105   98  105 1   
   106   99  106 1   
   107   99  107 1   
   108   99  108 1   
   109  100  109 1   
   110  100  110 1   
   111  100  111 1   
   112  112  113 1   
   113  112  119 1   
   114  113  114 1   
   115  113  116 1   
   116  113  120 1   
   117  114  115 2   
   118  114  126 1   
   119  116  117 1   
   120  116  118 1   
   121  116  121 1   
   122  117  123 1   
   123  117  124 1   
   124  117  125 1   
   125  118  122 1   
   126  126  127 1   
   127  126  133 1   
   128  127  128 1   
   129  127  130 1   
   130  127  134 1   
   131  128  129 2   
   132  128  140 1   
   133  130  131 1   
   134  130  132 1   
   135  130  135 1   
   136  131  137 1   
   137  131  138 1   
   138  131  139 1   
   139  132  136 1   
   140  140  141 1   
   141  140  149 1   
   142  141  142 1   
   143  141  144 1   
   144  141  150 1   
   145  142  143 2   
   146  142  162 1   
   147  144  145 1   
   148  144  151 1   
   149  144  152 1   
   150  145  146 1   
   151  145  153 1   
   152  145  154 1   
   153  146  147 1   
   154  146  155 1   
   155  146  156 1   
   156  147  148 1   
   157  147  157 1   
   158  147  158 1   
   159  148  159 1   
   160  148  160 1   
   161  148  161 1   
   162  162  163 1   
   163  162  171 1   
   164  163  164 1   
   165  163  166 1   
   166  163  172 1   
   167  164  165 2   
   168  164  177 1   
   169  166  167 1   
   170  166  173 1   
   171  166  174 1   
   172  167  168 1   
   173  167  175 1   
   174  167  176 1   
   175  168  169 1   
   176  168  170 1   
   177  177  178 1   
   178  177  182 1   
   179  178  179 1   
   180  178  180 1   
   181  178  181 1   
   182  184  185 1   
   183  184  186 1   
   184  187  188 1   
   185  187  189 1   
@<TRIPOS>SUBSTRUCTURE
     1 MOL         1 TEMP              0 ****  ****    0 ROOT
