@<TRIPOS>MOLECULE
MOL
  179   176     1     0     0
SMALL
resp


@<TRIPOS>ATOM
      1 C1          2.7780    3.2800    3.7270 c3        1 MOL     -0.405568
      2 C2          1.7340    3.1700    2.5730 c         1 MOL      0.635707
      3 O1          2.0410    3.4780    1.4490 o         1 MOL     -0.581274
      4 H1          3.7330    3.6150    3.3200 hc        1 MOL      0.105971
      5 H2          2.4270    3.9990    4.4660 hc        1 MOL      0.105971
      6 H3          2.9040    2.3050    4.1980 hc        1 MOL      0.105971
      7 N1          0.5070    2.7850    2.8780 n         1 MOL     -0.559605
      8 C3         -0.5740    2.5910    1.9210 c3        1 MOL      0.363187
      9 C4         -1.1810    3.9550    1.4070 c         1 MOL      0.250853
     10 O2         -2.1820    4.4340    1.9060 o         1 MOL     -0.459205
     11 C5         -1.6670    1.7230    2.5270 c3        1 MOL     -0.060573
     12 C6         -2.7850    1.4110    1.6230 c         1 MOL      0.622889
     13 O3         -2.5090    1.2000    0.4250 o         1 MOL     -0.662802
     14 O4         -3.9630    1.3590    2.0470 o         1 MOL     -0.662802
     15 H4          0.3330    2.4990    3.8310 hn        1 MOL      0.287066
     16 H5         -0.0940    2.0750    1.0750 h1        1 MOL     -0.084262
     17 H6         -2.0300    2.2270    3.4250 hc        1 MOL      0.001319
     18 H7         -1.2830    0.7870    2.9290 hc        1 MOL      0.001319
     19 N2         -0.4480    4.4910    0.4470 n         1 MOL     -0.258242
     20 C7         -0.6740    5.8960   -0.0500 c3        1 MOL      0.137295
     21 C8         -1.8370    5.9720   -1.0090 c         1 MOL      0.382066
     22 O5         -2.1680    7.0940   -1.3870 o         1 MOL     -0.565920
     23 C9          0.6240    6.4480   -0.6860 c3        1 MOL     -0.158833
     24 C10         1.3900    7.1300    0.4960 c3        1 MOL      0.063624
     25 C11         2.6800    7.8990    0.0390 c3        1 MOL     -0.061596
     26 C12         3.5830    8.2160    1.2220 c3        1 MOL     -0.136414
     27 N3          4.1230    7.0160    1.9050 n4        1 MOL     -0.250552
     28 H8          0.4480    4.0520    0.3230 hn        1 MOL      0.334675
     29 H9         -0.9370    6.5430    0.7860 h1        1 MOL      0.050075
     30 H10         0.3870    7.2430   -1.3910 hc        1 MOL      0.064585
     31 H11         1.1450    5.5930   -1.1180 hc        1 MOL      0.064585
     32 H12         1.6660    6.3450    1.1890 hc        1 MOL      0.011273
     33 H13         0.7010    7.8360    0.9660 hc        1 MOL      0.011273
     34 H14         2.4300    8.8880   -0.3470 hc        1 MOL      0.073169
     35 H15         3.2540    7.3990   -0.7320 hc        1 MOL      0.073169
     36 H16         3.1190    8.8540    1.9740 hx        1 MOL      0.125589
     37 H17         4.4830    8.7990    0.9940 hx        1 MOL      0.125589
     38 H18         3.6100    6.4210    2.5370 hn        1 MOL      0.298499
     39 H19         4.6980    6.4440    1.3160 hn        1 MOL      0.298499
     40 H20         4.8640    7.3120    2.5280 hn        1 MOL      0.298499
     41 N4         -2.3870    4.8530   -1.4430 n         1 MOL     -0.087522
     42 C13        -3.4570    4.6540   -2.3570 c3        1 MOL      0.003841
     43 C14        -4.7290    4.1860   -1.6120 c         1 MOL      0.372104
     44 O6         -5.7780    4.0020   -2.2190 o         1 MOL     -0.531317
     45 C15        -3.0810    3.6680   -3.4470 c3        1 MOL     -0.096223
     46 C16        -2.4480    2.4130   -2.8680 c         1 MOL      0.685314
     47 O7         -2.8880    1.3040   -3.2830 o         1 MOL     -0.704129
     48 O8         -1.4230    2.4850   -2.1230 o         1 MOL     -0.704129
     49 H21        -1.9630    4.0100   -1.0730 hn        1 MOL      0.026027
     50 H22        -3.6050    5.5850   -2.8860 h1        1 MOL      0.089860
     51 H23        -2.3670    4.1510   -4.1110 hc        1 MOL      0.039615
     52 H24        -3.9330    3.3690   -4.0610 hc        1 MOL      0.039615
     53 N5         -4.6910    3.9510   -0.3090 n         1 MOL     -0.160867
     54 C17        -5.8280    3.5900    0.5600 c3        1 MOL     -0.081770
     55 C18        -6.5580    2.2470    0.2980 c         1 MOL      0.545681
     56 O9         -7.5770    2.0520    0.8980 o         1 MOL     -0.567070
     57 H25        -3.7970    4.1290    0.1090 hn        1 MOL      0.144006
     58 H26        -6.5800    4.3770    0.5380 h1        1 MOL      0.086071
     59 H27        -5.5410    3.5790    1.6030 h1        1 MOL      0.086071
     60 N6         -5.9740    1.4060   -0.5620 n         1 MOL     -0.269584
     61 C19        -6.6580    0.1190   -0.9790 c3        1 MOL     -0.035178
     62 C20        -6.5690   -1.0090    0.0890 c         1 MOL      0.279919
     63 O10        -7.1030   -2.0870   -0.1410 o         1 MOL     -0.458339
     64 C21        -6.0600   -0.3670   -2.3630 c3        1 MOL     -0.322459
     65 C22        -4.7850   -1.1620   -2.3980 c         1 MOL      0.686628
     66 N7         -4.6770   -2.1860   -3.2380 n         1 MOL     -0.834928
     67 O11        -3.9230   -0.9600   -1.6060 o         1 MOL     -0.465587
     68 H28        -5.0700    1.6540   -0.9460 hn        1 MOL      0.209096
     69 H29        -7.7190    0.2000   -1.2070 h1        1 MOL      0.142601
     70 H30        -6.1350    0.4650   -3.0550 hc        1 MOL      0.115299
     71 H31        -6.8360   -1.0440   -2.7290 hc        1 MOL      0.115299
     72 H32        -5.5440   -2.6080   -3.5170 hn        1 MOL      0.381154
     73 H33        -3.8140   -2.7070   -3.1900 hn        1 MOL      0.381154
     74 N8         -5.9120   -0.7500    1.2270 n         1 MOL     -0.047541
     75 C23        -5.7660   -1.6030    2.3870 c3        1 MOL     -0.265305
     76 C24        -4.5860   -2.5830    2.3610 c         1 MOL      0.560011
     77 O12        -4.5480   -3.5150    3.1780 o         1 MOL     -0.571534
     78 H34        -5.4110    0.1330    1.2770 hn        1 MOL      0.215705
     79 H35        -6.6590   -2.1650    2.6750 h1        1 MOL      0.130385
     80 H36        -5.5190   -0.9350    3.2230 h1        1 MOL      0.130385
     81 N9         -3.5670   -2.4560    1.4750 n         1 MOL     -0.149612
     82 C25        -2.4610   -3.4400    1.3660 c3        1 MOL      0.164333
     83 C26        -1.0930   -2.7310    1.3370 c         1 MOL      0.318113
     84 O13        -0.8500   -1.7920    0.5960 o         1 MOL     -0.495078
     85 C27        -2.6070   -4.2580    0.0610 c3        1 MOL      0.114753
     86 C28        -3.7110   -5.2920    0.0900 ca        1 MOL     -0.112585
     87 C29        -4.9100   -5.0250   -0.5560 ca        1 MOL     -0.072770
     88 C30        -3.6370   -6.5740    0.7600 ca        1 MOL     -0.072770
     89 C31        -6.0200   -5.9130   -0.5520 ca        1 MOL     -0.329891
     90 C32        -4.7550   -7.4790    0.7780 ca        1 MOL     -0.329891
     91 C33        -5.9060   -7.1140    0.0880 ca        1 MOL      0.452509
     92 O14        -6.9490   -7.9630    0.0180 oh        1 MOL     -0.527444
     93 H37        -3.5350   -1.6920    0.8130 hn        1 MOL      0.000858
     94 H38        -2.3710   -4.0390    2.2780 h1        1 MOL      0.008148
     95 H39        -1.6980   -4.8370   -0.1320 hc        1 MOL     -0.016779
     96 H40        -2.7830   -3.5090   -0.7120 hc        1 MOL     -0.016779
     97 H41        -4.9760   -4.0270   -0.9510 ha        1 MOL      0.094332
     98 H42        -2.7350   -6.9880    1.1940 ha        1 MOL      0.094332
     99 H43        -6.9210   -5.5760   -1.0370 ha        1 MOL      0.162007
    100 H44        -4.7610   -8.3980    1.3490 ha        1 MOL      0.162007
    101 H45        -6.8640   -8.7850    0.5100 ho        1 MOL      0.370340
    102 N10        -0.1050   -3.1990    2.0680 n         1 MOL     -0.350751
    103 C34         1.2880   -2.7840    2.0250 c3        1 MOL      0.024546
    104 C35         2.2570   -3.7550    1.1680 c         1 MOL      0.376648
    105 O15         2.5930   -4.8950    1.5340 o         1 MOL     -0.531200
    106 C36         1.8670   -2.4380    3.4290 c3        1 MOL     -0.014698
    107 C37         1.1910   -1.2440    3.9920 c3        1 MOL      0.275472
    108 C38         3.3890   -2.2350    3.3910 c3        1 MOL     -0.079919
    109 C39         1.3930   -1.0930    5.5580 c3        1 MOL     -0.387523
    110 H46        -0.3380   -3.8630    2.8020 hn        1 MOL      0.289280
    111 H47         1.3730   -1.8330    1.5080 h1        1 MOL      0.010862
    112 H48         1.6080   -3.2230    4.1390 hc        1 MOL      0.037193
    113 H49         0.1290   -1.4210    3.8400 hc        1 MOL     -0.028784
    114 H50         1.4180   -0.2960    3.5030 hc        1 MOL     -0.028784
    115 H51         3.9300   -3.1720    3.2520 hc        1 MOL      0.012289
    116 H52         3.7380   -1.5520    2.6200 hc        1 MOL      0.012289
    117 H53         3.7250   -1.7260    4.3000 hc        1 MOL      0.012289
    118 H54         0.7380   -0.2650    5.8080 hc        1 MOL      0.089887
    119 H55         1.0730   -2.0330    6.0110 hc        1 MOL      0.089887
    120 H56         2.4060   -0.7760    5.8350 hc        1 MOL      0.089887
    121 N11         2.6370   -3.3550   -0.0210 n         1 MOL     -0.053846
    122 C40         3.6270   -3.9710   -0.9440 c3        1 MOL     -0.203036
    123 C41         5.0490   -3.7640   -0.4270 c         1 MOL      0.568256
    124 O16         5.3330   -2.8330    0.3900 o         1 MOL     -0.432133
    125 C42         3.4200   -3.4160   -2.3190 c3        1 MOL     -0.100959
    126 O17         3.5950   -2.0020   -2.2920 oh        1 MOL     -0.520092
    127 H57         2.1040   -2.5980   -0.4220 hn        1 MOL      0.192332
    128 H58         3.4490   -5.0360   -0.8180 h1        1 MOL      0.100044
    129 H59         2.4890   -3.7300   -2.7930 h1        1 MOL      0.106344
    130 H60         4.2440   -3.7260   -2.9490 h1        1 MOL      0.106344
    131 H61         2.8120   -1.5890   -1.9300 ho        1 MOL      0.342265
    132 N12         6.0590   -4.4470   -0.9860 n         1 MOL     -0.468205
    133 C43         7.5210   -4.1530   -0.7710 c3        1 MOL      0.084173
    134 C44         7.9240   -2.6970   -1.0680 c         1 MOL      0.472705
    135 O18         8.6200   -2.0250   -0.3010 o         1 MOL     -0.487854
    136 C45         8.3550   -5.1740   -1.5710 c3        1 MOL     -0.166272
    137 H62         5.8950   -5.1370   -1.6970 hn        1 MOL      0.294499
    138 H63         7.7300   -4.3730    0.2750 h1        1 MOL      0.088666
    139 H64         9.4120   -5.1820   -1.3430 hc        1 MOL      0.053184
    140 H65         7.8570   -6.1330   -1.3930 hc        1 MOL      0.053184
    141 H66         8.1810   -5.0640   -2.6470 hc        1 MOL      0.053184
    142 N13         7.3750   -2.1850   -2.1920 n         1 MOL     -0.424433
    143 C46         7.7300   -0.8450   -2.6730 c3        1 MOL      0.130227
    144 C47         7.1630    0.2220   -1.7800 c         1 MOL      0.476634
    145 O19         7.9930    1.1250   -1.4370 o         1 MOL     -0.564819
    146 C48         7.1040   -0.7690   -4.1100 c3        1 MOL     -0.342330
    147 H67         6.8710   -2.8210   -2.7960 hn        1 MOL      0.315368
    148 H68         8.8050   -0.6800   -2.6650 h1        1 MOL      0.091843
    149 H69         6.0330   -0.9420   -4.0650 hc        1 MOL      0.090567
    150 H70         7.2740    0.2280   -4.5190 hc        1 MOL      0.090567
    151 H71         7.4360   -1.6090   -4.7100 hc        1 MOL      0.090567
    152 N14         5.9320    0.2020   -1.2880 n         1 MOL     -0.300359
    153 C49         5.3280    1.3230   -0.4730 c3        1 MOL     -0.058744
    154 C50         5.8270    1.2510    1.0300 c         1 MOL      0.375266
    155 O20         5.6450    2.1810    1.7760 o         1 MOL     -0.523386
    156 C51         3.8380    1.4380   -0.6840 c3        1 MOL      0.012511
    157 C52         3.0800    0.2430   -0.0830 c3        1 MOL      0.031961
    158 C53         1.7000    0.0830   -0.6160 c         1 MOL      0.668677
    159 O21         1.3460   -1.0030   -1.1430 o         1 MOL     -0.693923
    160 O22         0.8950    1.0100   -0.5720 o         1 MOL     -0.693923
    161 H72         5.3600   -0.5680   -1.6010 hn        1 MOL      0.192821
    162 H73         5.7290    2.2890   -0.7830 h1        1 MOL      0.116157
    163 H74         3.6520    1.5270   -1.7600 hc        1 MOL      0.009739
    164 H75         3.5230    2.3840   -0.2490 hc        1 MOL      0.009739
    165 H76         3.0680    0.3910    0.9940 hc        1 MOL      0.031681
    166 H77         3.6080   -0.6720   -0.3140 hc        1 MOL      0.031681
    167 N15         6.5410    0.1040    1.3340 n         1 MOL      0.002443
    168 C54         7.3220   -0.1630    2.5900 c3        1 MOL     -0.299035
    169 H78         8.3650    0.1090    2.4340 h1        1 MOL      0.117392
    170 H79         6.9110    0.4300    3.4070 h1        1 MOL      0.117392
    171 H80         7.2560   -1.2220    2.8410 h1        1 MOL      0.117392
    172 H81         6.4410   -0.6210    0.6350 hn        1 MOL      0.068131
    173 Ca1        -1.2980   -0.1380   -1.4330 Ca        1 MOL      1.691579
    174 O23         0.0790    0.2100   -3.6580 oh        1 MOL     -0.829350
    175 H82         1.0000   -0.0260   -3.7530 ho        1 MOL      0.408025
    176 H83        -0.1970    0.4630   -4.5350 ho        1 MOL      0.408025
    177 O24        -1.5310   -2.3120   -3.1580 oh        1 MOL     -0.829350
    178 H84        -1.8280   -2.2250   -4.0660 ho        1 MOL      0.408025
    179 H85        -0.8370   -2.9660   -3.1960 ho        1 MOL      0.408025
@<TRIPOS>BOND
     1    1    2 1   
     2    1    4 1   
     3    1    5 1   
     4    1    6 1   
     5    2    3 2   
     6    2    7 1   
     7    7    8 1   
     8    7   15 1   
     9    8    9 1   
    10    8   11 1   
    11    8   16 1   
    12    9   10 2   
    13    9   19 1   
    14   11   12 1   
    15   11   17 1   
    16   11   18 1   
    17   12   13 1   
    18   12   14 1   
    19   19   20 1   
    20   19   28 1   
    21   20   21 1   
    22   20   23 1   
    23   20   29 1   
    24   21   22 2   
    25   21   41 1   
    26   23   24 1   
    27   23   30 1   
    28   23   31 1   
    29   24   25 1   
    30   24   32 1   
    31   24   33 1   
    32   25   26 1   
    33   25   34 1   
    34   25   35 1   
    35   26   27 1   
    36   26   36 1   
    37   26   37 1   
    38   27   38 1   
    39   27   39 1   
    40   27   40 1   
    41   41   42 1   
    42   41   49 1   
    43   42   43 1   
    44   42   45 1   
    45   42   50 1   
    46   43   44 2   
    47   43   53 1   
    48   45   46 1   
    49   45   51 1   
    50   45   52 1   
    51   46   47 1   
    52   46   48 1   
    53   53   54 1   
    54   53   57 1   
    55   54   55 1   
    56   54   58 1   
    57   54   59 1   
    58   55   56 2   
    59   55   60 1   
    60   60   61 1   
    61   60   68 1   
    62   61   62 1   
    63   61   64 1   
    64   61   69 1   
    65   62   63 2   
    66   62   74 1   
    67   64   65 1   
    68   64   70 1   
    69   64   71 1   
    70   65   66 1   
    71   65   67 2   
    72   66   72 1   
    73   66   73 1   
    74   74   75 1   
    75   74   78 1   
    76   75   76 1   
    77   75   79 1   
    78   75   80 1   
    79   76   77 2   
    80   76   81 1   
    81   81   82 1   
    82   81   93 1   
    83   82   83 1   
    84   82   85 1   
    85   82   94 1   
    86   83   84 2   
    87   83  102 1   
    88   85   86 1   
    89   85   95 1   
    90   85   96 1   
    91   86   87 ar  
    92   86   88 ar  
    93   87   89 ar  
    94   87   97 1   
    95   88   90 ar  
    96   88   98 1   
    97   89   91 ar  
    98   89   99 1   
    99   90   91 ar  
   100   90  100 1   
   101   91   92 1   
   102   92  101 1   
   103  102  103 1   
   104  102  110 1   
   105  103  104 1   
   106  103  106 1   
   107  103  111 1   
   108  104  105 2   
   109  104  121 1   
   110  106  107 1   
   111  106  108 1   
   112  106  112 1   
   113  107  109 1   
   114  107  113 1   
   115  107  114 1   
   116  108  115 1   
   117  108  116 1   
   118  108  117 1   
   119  109  118 1   
   120  109  119 1   
   121  109  120 1   
   122  121  122 1   
   123  121  127 1   
   124  122  123 1   
   125  122  125 1   
   126  122  128 1   
   127  123  124 2   
   128  123  132 1   
   129  125  126 1   
   130  125  129 1   
   131  125  130 1   
   132  126  131 1   
   133  132  133 1   
   134  132  137 1   
   135  133  134 1   
   136  133  136 1   
   137  133  138 1   
   138  134  135 2   
   139  134  142 1   
   140  136  139 1   
   141  136  140 1   
   142  136  141 1   
   143  142  143 1   
   144  142  147 1   
   145  143  144 1   
   146  143  146 1   
   147  143  148 1   
   148  144  145 2   
   149  144  152 1   
   150  146  149 1   
   151  146  150 1   
   152  146  151 1   
   153  152  153 1   
   154  152  161 1   
   155  153  154 1   
   156  153  156 1   
   157  153  162 1   
   158  154  155 2   
   159  154  167 1   
   160  156  157 1   
   161  156  163 1   
   162  156  164 1   
   163  157  158 1   
   164  157  165 1   
   165  157  166 1   
   166  158  159 1   
   167  158  160 1   
   168  167  168 1   
   169  167  172 1   
   170  168  169 1   
   171  168  170 1   
   172  168  171 1   
   173  174  175 1   
   174  174  176 1   
   175  177  178 1   
   176  177  179 1   
@<TRIPOS>SUBSTRUCTURE
     1 MOL         1 TEMP              0 ****  ****    0 ROOT
