@<TRIPOS>MOLECULE
MOL
  175   173     1     0     0
SMALL
resp


@<TRIPOS>ATOM
      1 C1          0.9030    4.1190    5.4620 c3        1 MOL     -0.251660
      2 C2          0.2900    3.9300    4.0510 c         1 MOL      0.724694
      3 O1          0.9890    4.0400    3.0470 o         1 MOL     -0.567623
      4 H1          0.6640    5.1160    5.8310 hc        1 MOL      0.056769
      5 H2          0.4900    3.3720    6.1410 hc        1 MOL      0.056769
      6 H3          1.9860    4.0020    5.4080 hc        1 MOL      0.056769
      7 N1         -0.9990    3.7190    3.8960 n         1 MOL     -0.669258
      8 C3         -1.7370    3.5650    2.5790 c3        1 MOL      0.124834
      9 C4         -1.8230    4.8830    1.7360 c         1 MOL      0.659988
     10 O2         -1.9770    6.0190    2.1780 o         1 MOL     -0.581182
     11 C5         -3.1650    2.9720    2.9100 c3        1 MOL     -0.510197
     12 C6         -4.0040    2.3320    1.7690 c         1 MOL      0.868837
     13 O3         -3.5550    2.2160    0.5990 o         1 MOL     -0.675466
     14 O4         -5.1620    2.0650    2.0680 o         1 MOL     -0.675466
     15 H4         -1.6110    3.6640    4.6960 hn        1 MOL      0.332203
     16 H5         -1.2320    2.7780    2.0230 h1        1 MOL      0.180729
     17 H6         -3.6780    3.8560    3.2850 hc        1 MOL      0.107767
     18 H7         -3.0340    2.3000    3.7600 hc        1 MOL      0.107767
     19 N2         -1.8660    4.6270    0.4130 n         1 MOL     -0.702029
     20 C7         -2.0940    5.6350   -0.6620 c3        1 MOL      0.522625
     21 C8         -3.0940    5.2580   -1.8170 c         1 MOL      0.467194
     22 O5         -3.4110    5.9890   -2.7010 o         1 MOL     -0.564266
     23 C9         -0.8760    6.3150   -1.2780 c3        1 MOL     -0.287268
     24 H8         -1.7220    3.6510    0.1950 hn        1 MOL      0.316379
     25 H9         -2.5840    6.4490   -0.1330 h1        1 MOL     -0.022611
     26 H10        -1.3150    7.2310   -1.6720 hc        1 MOL      0.054206
     27 H11        -0.1460    6.6050   -0.5180 hc        1 MOL      0.054206
     28 H12        -0.4740    5.6850   -2.0650 hc        1 MOL      0.054206
     29 N3         -3.7960    4.1610   -1.6530 n         1 MOL     -0.523824
     30 C10        -4.5540    3.6020   -2.7620 c3        1 MOL      0.274601
     31 C11        -5.8220    2.7710   -2.3940 c         1 MOL      0.371150
     32 O6         -6.8330    2.7610   -3.1160 o         1 MOL     -0.578846
     33 C12        -3.6310    2.6910   -3.6220 c3        1 MOL     -0.369555
     34 C13        -2.9810    1.6240   -2.8590 c         1 MOL      0.843639
     35 O7         -1.7750    1.4840   -3.0700 o         1 MOL     -0.699828
     36 O8         -3.5340    0.8290   -2.0440 o         1 MOL     -0.699828
     37 H13        -3.5060    3.5170   -0.9380 hn        1 MOL      0.255405
     38 H14        -5.0230    4.3870   -3.3460 h1        1 MOL      0.059238
     39 H15        -2.9230    3.4220   -4.0380 hc        1 MOL      0.082510
     40 H16        -4.0720    2.3640   -4.5580 hc        1 MOL      0.082510
     41 N4         -5.9330    2.1870   -1.1710 n         1 MOL     -0.189853
     42 C14        -7.1830    1.4490   -0.7710 c3        1 MOL     -0.173756
     43 C15        -7.1950   -0.0340   -1.0850 c         1 MOL      0.500886
     44 O9         -8.2180   -0.6590   -0.8270 o         1 MOL     -0.592951
     45 H17        -5.1250    2.1050   -0.5640 hn        1 MOL      0.104246
     46 H18        -8.0970    1.9580   -1.0620 h1        1 MOL      0.115991
     47 H19        -7.2410    1.5060    0.3190 h1        1 MOL      0.115991
     48 N5         -6.1380   -0.6110   -1.7460 n         1 MOL     -0.139573
     49 C16        -6.1790   -1.9570   -2.2190 c3        1 MOL     -0.053308
     50 C17        -6.3000   -3.0660   -1.1530 c         1 MOL      0.415745
     51 O10        -6.4380   -4.2130   -1.5840 o         1 MOL     -0.538790
     52 C18        -5.0160   -2.1470   -3.2100 c3        1 MOL     -0.074903
     53 C19        -3.6130   -2.1840   -2.6310 c         1 MOL      0.505881
     54 N6         -2.5980   -2.1110   -3.4600 n         1 MOL     -0.698289
     55 O11        -3.2830   -2.1880   -1.4630 o         1 MOL     -0.326568
     56 H20        -5.2230   -0.1950   -1.6910 hn        1 MOL      0.063970
     57 H21        -7.0890   -1.9640   -2.8240 h1        1 MOL      0.098926
     58 H22        -5.0570   -1.2940   -3.8880 hc        1 MOL      0.037645
     59 H23        -5.2060   -3.0430   -3.8030 hc        1 MOL      0.037645
     60 H24        -2.8000   -2.0360   -4.4450 hn        1 MOL      0.333737
     61 H25        -1.7060   -1.8740   -3.0700 hn        1 MOL      0.333737
     62 N7         -6.2020   -2.8110    0.1750 n         1 MOL     -0.128255
     63 C20        -6.3810   -3.7600    1.2790 c3        1 MOL     -0.316152
     64 C21        -5.0970   -4.5040    1.6030 c         1 MOL      0.562909
     65 O12        -5.1690   -5.4240    2.4420 o         1 MOL     -0.595592
     66 H26        -6.0130   -1.8440    0.4170 hn        1 MOL      0.202515
     67 H27        -7.0870   -4.5320    0.9850 h1        1 MOL      0.139692
     68 H28        -6.8010   -3.2380    2.1380 h1        1 MOL      0.139692
     69 N8         -3.9170   -4.1870    1.0280 n         1 MOL     -0.163380
     70 C22        -2.5870   -4.7440    1.3480 c3        1 MOL     -0.278622
     71 C23        -1.5620   -3.6180    1.5620 c         1 MOL      0.638386
     72 O13        -1.7010   -2.5430    0.9470 o         1 MOL     -0.625722
     73 C24        -2.1730   -5.6520    0.2090 c3        1 MOL      0.587298
     74 C25        -2.8780   -6.9770    0.2910 c3        1 MOL     -0.459234
     75 O14        -2.4500   -5.0560   -1.0440 oh        1 MOL     -0.605547
     76 H29        -3.9800   -3.4810    0.3180 hn        1 MOL      0.092018
     77 H30        -2.5940   -5.2480    2.3170 h1        1 MOL      0.121577
     78 H31        -1.1250   -5.9300    0.2320 h1        1 MOL     -0.048068
     79 H32        -2.0520   -4.1840   -1.0460 ho        1 MOL      0.342325
     80 H33        -3.9660   -6.8900    0.1900 hc        1 MOL      0.109500
     81 H34        -2.5040   -7.6540   -0.4730 hc        1 MOL      0.109500
     82 H35        -2.7530   -7.3520    1.3090 hc        1 MOL      0.109500
     83 N9         -0.5180   -3.7850    2.3700 n         1 MOL     -0.585381
     84 C26         0.6010   -2.8320    2.1960 c3        1 MOL      0.092206
     85 C27         1.3910   -3.1270    0.8880 c         1 MOL      0.488400
     86 O15         1.5440   -4.2870    0.5140 o         1 MOL     -0.586873
     87 C28         1.5090   -2.9270    3.4850 c3        1 MOL     -0.004877
     88 C29         0.9980   -1.8880    4.5820 c3        1 MOL      0.094255
     89 C30         2.9870   -2.8240    3.1390 c3        1 MOL     -0.081543
     90 C31         1.8140   -2.0490    5.8930 c3        1 MOL     -0.163528
     91 H36        -0.2870   -4.6610    2.8270 hn        1 MOL      0.306604
     92 H37         0.1700   -1.8310    2.1370 h1        1 MOL      0.089592
     93 H38         1.3820   -3.8910    3.9640 hc        1 MOL      0.016072
     94 H39        -0.0800   -1.9530    4.7510 hc        1 MOL     -0.021379
     95 H40         1.1890   -0.9260    4.1060 hc        1 MOL     -0.021379
     96 H41         3.6650   -2.9050    3.9970 hc        1 MOL      0.011218
     97 H42         3.3580   -3.6680    2.5750 hc        1 MOL      0.011218
     98 H43         3.2120   -1.9170    2.5860 hc        1 MOL      0.011218
     99 H44         2.7930   -1.5860    5.9040 hc        1 MOL      0.032898
    100 H45         1.2230   -1.7940    6.7810 hc        1 MOL      0.032898
    101 H46         1.9740   -3.1160    6.0470 hc        1 MOL      0.032898
    102 N10         1.8400   -2.0900    0.1790 n         1 MOL     -0.107366
    103 C32         2.5980   -2.0750   -1.0140 c3        1 MOL      0.052721
    104 C33         4.0190   -1.6320   -0.7680 c         1 MOL      0.281577
    105 O16         4.3030   -0.9900    0.2190 o         1 MOL     -0.261820
    106 C34         2.0060   -1.1160   -1.9950 c3        1 MOL     -0.192131
    107 C35         0.5050   -1.3120   -2.1950 c         1 MOL      0.610702
    108 O17        -0.2650   -1.1370   -1.2560 o         1 MOL     -0.630144
    109 O18         0.1200   -1.5420   -3.3420 o         1 MOL     -0.630144
    110 H47         1.6470   -1.1720    0.5550 hn        1 MOL      0.133618
    111 H48         2.6210   -3.0720   -1.4410 h1        1 MOL      0.054478
    112 H49         2.5760   -1.2110   -2.9230 hc        1 MOL      0.069794
    113 H50         2.1200   -0.0730   -1.7120 hc        1 MOL      0.069794
    114 N11         4.9220   -1.9360   -1.6870 n         1 MOL     -0.487074
    115 C36         6.2810   -1.4740   -1.6730 c3        1 MOL      0.202165
    116 C37         6.5830   -0.0290   -1.1670 c         1 MOL      0.421527
    117 O19         7.3230    0.1930   -0.2240 o         1 MOL     -0.511283
    118 C38         7.0690   -1.8620   -2.9620 c3        1 MOL     -0.221768
    119 C39         8.5110   -1.8100   -2.7480 ca        1 MOL      0.228054
    120 C40         9.0700   -2.7480   -1.8730 ca        1 MOL     -0.280414
    121 C41         9.2850   -0.7620   -3.3330 ca        1 MOL     -0.280414
    122 C42        10.4170   -2.6230   -1.4790 ca        1 MOL     -0.009886
    123 C43        10.6420   -0.7330   -2.9480 ca        1 MOL     -0.009886
    124 C44        11.2280   -1.6690   -2.1230 ca        1 MOL     -0.220432
    125 H51         4.5400   -2.4890   -2.4420 hn        1 MOL      0.324226
    126 H52         6.8280   -1.9920   -0.8790 h1        1 MOL      0.047986
    127 H53         6.8530   -1.1490   -3.7590 hc        1 MOL      0.064658
    128 H54         6.7350   -2.7940   -3.4050 hc        1 MOL      0.064658
    129 H55         8.5520   -3.6020   -1.4600 ha        1 MOL      0.145183
    130 H56         8.7900   -0.0260   -3.9520 ha        1 MOL      0.145183
    131 H57        10.8570   -3.3120   -0.7800 ha        1 MOL      0.093178
    132 H58        11.1840    0.1870   -3.1050 ha        1 MOL      0.093178
    133 H59        12.2420   -1.5940   -1.7670 ha        1 MOL      0.122739
    134 N12         6.0160    0.9820   -1.8200 n         1 MOL     -0.035579
    135 C45         6.2150    2.3410   -1.3190 c3        1 MOL     -0.047206
    136 C46         5.5910    2.6600    0.0740 c         1 MOL      0.286282
    137 O20         5.9670    3.6850    0.6890 o         1 MOL     -0.524205
    138 C47         5.7070    3.2970   -2.3360 c3        1 MOL     -0.157368
    139 C48         4.7040    2.4650   -3.1180 c3        1 MOL     -0.036309
    140 C49         5.2470    1.0310   -3.0560 c3        1 MOL      0.020425
    141 H60         7.2950    2.5280   -1.3490 h1        1 MOL      0.092714
    142 H61         5.2390    4.2300   -2.0320 hc        1 MOL      0.079218
    143 H62         6.5510    3.6270   -2.9440 hc        1 MOL      0.079218
    144 H63         3.7060    2.3440   -2.6820 hc        1 MOL      0.050071
    145 H64         4.4750    2.8700   -4.1050 hc        1 MOL      0.050071
    146 H65         4.4520    0.2880   -3.0780 h1        1 MOL     -0.001690
    147 H66         5.8740    0.9290   -3.9360 h1        1 MOL     -0.001690
    148 N13         4.7090    1.8410    0.5590 n         1 MOL      0.017815
    149 C50         4.0140    1.9620    1.8800 c3        1 MOL     -0.044307
    150 C51         4.8010    1.2580    2.9770 c         1 MOL      0.392116
    151 O21         4.8120    1.6560    4.1320 o         1 MOL     -0.540111
    152 C52         2.6060    1.3290    1.8880 c3        1 MOL      0.138764
    153 C53         1.7710    2.0170    0.7430 c3        1 MOL     -0.061200
    154 C54         0.4040    1.4000    0.7450 c         1 MOL      0.447895
    155 O22        -0.5590    1.9610    0.0880 o         1 MOL     -0.649199
    156 O23         0.1030    0.3790    1.4180 o         1 MOL     -0.649199
    157 H67         4.6130    0.9450    0.0960 hn        1 MOL      0.015045
    158 H68         3.9110    2.9980    2.2120 h1        1 MOL      0.089824
    159 H69         2.0750    1.6100    2.7920 hc        1 MOL     -0.017076
    160 H70         2.7110    0.2470    1.8390 hc        1 MOL     -0.017076
    161 H71         2.2590    1.8190   -0.2160 hc        1 MOL      0.055710
    162 H72         1.7790    3.1000    0.8490 hc        1 MOL      0.055710
    163 N14         5.3930    0.1030    2.5920 n         1 MOL      0.008368
    164 C55         6.4570   -0.5390    3.3890 c3        1 MOL     -0.350319
    165 H73         7.1070   -1.1150    2.7290 h1        1 MOL      0.115290
    166 H74         7.0420    0.2260    3.8980 h1        1 MOL      0.115290
    167 H75         6.0090   -1.2050    4.1270 h1        1 MOL      0.115290
    168 H76         5.3050   -0.1410    1.6220 hn        1 MOL      0.050125
    169 Ca1        -2.1870   -0.1290   -0.1150 Ca        1 MOL      1.595261
    170 O24        -2.1240   -0.1580    2.7950 oh        1 MOL     -0.769828
    171 H77        -1.1940   -0.0380    2.6120 ho        1 MOL      0.379419
    172 H78        -2.2130   -0.0210    3.7370 ho        1 MOL      0.379419
    173 O25        -4.6270   -0.4480    1.0980 oh        1 MOL     -0.769828
    174 H79        -4.6270   -0.8500    1.9610 ho        1 MOL      0.379419
    175 H80        -4.8370    0.4760    1.2570 ho        1 MOL      0.379419
@<TRIPOS>BOND
     1    1    2 1   
     2    1    4 1   
     3    1    5 1   
     4    1    6 1   
     5    2    3 2   
     6    2    7 1   
     7    7    8 1   
     8    7   15 1   
     9    8    9 1   
    10    8   11 1   
    11    8   16 1   
    12    9   10 2   
    13    9   19 1   
    14   11   12 1   
    15   11   17 1   
    16   11   18 1   
    17   12   13 1   
    18   12   14 1   
    19   19   20 1   
    20   19   24 1   
    21   20   21 1   
    22   20   23 1   
    23   20   25 1   
    24   21   22 2   
    25   21   29 1   
    26   23   26 1   
    27   23   27 1   
    28   23   28 1   
    29   29   30 1   
    30   29   37 1   
    31   30   31 1   
    32   30   33 1   
    33   30   38 1   
    34   31   32 2   
    35   31   41 1   
    36   33   34 1   
    37   33   39 1   
    38   33   40 1   
    39   34   35 1   
    40   34   36 1   
    41   41   42 1   
    42   41   45 1   
    43   42   43 1   
    44   42   46 1   
    45   42   47 1   
    46   43   44 2   
    47   43   48 1   
    48   48   49 1   
    49   48   56 1   
    50   49   50 1   
    51   49   52 1   
    52   49   57 1   
    53   50   51 2   
    54   50   62 1   
    55   52   53 1   
    56   52   58 1   
    57   52   59 1   
    58   53   54 1   
    59   53   55 2   
    60   54   60 1   
    61   54   61 1   
    62   62   63 1   
    63   62   66 1   
    64   63   64 1   
    65   63   67 1   
    66   63   68 1   
    67   64   65 2   
    68   64   69 1   
    69   69   70 1   
    70   69   76 1   
    71   70   71 1   
    72   70   73 1   
    73   70   77 1   
    74   71   72 2   
    75   71   83 1   
    76   73   74 1   
    77   73   75 1   
    78   73   78 1   
    79   74   80 1   
    80   74   81 1   
    81   74   82 1   
    82   75   79 1   
    83   83   84 1   
    84   83   91 1   
    85   84   85 1   
    86   84   87 1   
    87   84   92 1   
    88   85   86 2   
    89   85  102 1   
    90   87   88 1   
    91   87   89 1   
    92   87   93 1   
    93   88   90 1   
    94   88   94 1   
    95   88   95 1   
    96   89   96 1   
    97   89   97 1   
    98   89   98 1   
    99   90   99 1   
   100   90  100 1   
   101   90  101 1   
   102  102  103 1   
   103  102  110 1   
   104  103  104 1   
   105  103  106 1   
   106  103  111 1   
   107  104  105 2   
   108  104  114 1   
   109  106  107 1   
   110  106  112 1   
   111  106  113 1   
   112  107  108 1   
   113  107  109 1   
   114  114  115 1   
   115  114  125 1   
   116  115  116 1   
   117  115  118 1   
   118  115  126 1   
   119  116  117 2   
   120  116  134 1   
   121  118  119 1   
   122  118  127 1   
   123  118  128 1   
   124  119  120 ar  
   125  119  121 ar  
   126  120  122 ar  
   127  120  129 1   
   128  121  123 ar  
   129  121  130 1   
   130  122  124 ar  
   131  122  131 1   
   132  123  124 ar  
   133  123  132 1   
   134  124  133 1   
   135  134  135 1   
   136  134  140 1   
   137  135  136 1   
   138  135  138 1   
   139  135  141 1   
   140  136  137 2   
   141  136  148 1   
   142  138  139 1   
   143  138  142 1   
   144  138  143 1   
   145  139  140 1   
   146  139  144 1   
   147  139  145 1   
   148  140  146 1   
   149  140  147 1   
   150  148  149 1   
   151  148  157 1   
   152  149  150 1   
   153  149  152 1   
   154  149  158 1   
   155  150  151 2   
   156  150  163 1   
   157  152  153 1   
   158  152  159 1   
   159  152  160 1   
   160  153  154 1   
   161  153  161 1   
   162  153  162 1   
   163  154  155 1   
   164  154  156 1   
   165  163  164 1   
   166  163  168 1   
   167  164  165 1   
   168  164  166 1   
   169  164  167 1   
   170  170  171 1   
   171  170  172 1   
   172  173  174 1   
   173  173  175 1   
@<TRIPOS>SUBSTRUCTURE
     1 MOL         1 TEMP              0 ****  ****    0 ROOT
