@<TRIPOS>MOLECULE
MOL
  186   183     1     0     0
SMALL
resp


@<TRIPOS>ATOM
      1 C1         -0.6270    1.5340    6.6890 c3        1 MOL     -0.358122
      2 C2         -0.8020    1.5200    5.2060 c         1 MOL      0.788413
      3 O1          0.1500    1.7520    4.4460 o         1 MOL     -0.645082
      4 H1         -0.0450    2.4100    6.9770 hc        1 MOL      0.091266
      5 H2         -1.6040    1.5730    7.1700 hc        1 MOL      0.091266
      6 H3         -0.1020    0.6310    7.0030 hc        1 MOL      0.091266
      7 N1         -2.0590    1.2540    4.7100 n         1 MOL     -0.654918
      8 C3         -2.2250    1.3320    3.2460 c3        1 MOL      0.073582
      9 C4         -2.3090    2.7570    2.6400 c         1 MOL      0.641070
     10 O2         -3.0220    3.6130    3.1270 o         1 MOL     -0.563968
     11 C5         -3.4790    0.5150    2.8990 c3        1 MOL     -0.060199
     12 C6         -3.9710    0.6630    1.4560 c         1 MOL      0.663345
     13 O3         -5.1890    0.6270    1.2500 o         1 MOL     -0.643358
     14 O4         -3.2000    1.0450    0.5690 o         1 MOL     -0.643358
     15 H4         -2.7780    0.8210    5.2820 hn        1 MOL      0.348825
     16 H5         -1.3750    0.8200    2.7860 h1        1 MOL     -0.085883
     17 H6         -4.3600    0.8890    3.4050 hc        1 MOL      0.016009
     18 H7         -3.4230   -0.5390    3.1770 hc        1 MOL      0.016009
     19 N2         -1.5210    3.0160    1.5750 n         1 MOL     -0.352967
     20 C7         -1.3620    4.3610    0.8820 c3        1 MOL     -0.225895
     21 C8         -2.4240    4.6520   -0.1870 c         1 MOL      0.622287
     22 O5         -2.4840    5.8040   -0.6770 o         1 MOL     -0.610604
     23 C9          0.0070    4.5720    0.2360 c3        1 MOL      0.017291
     24 C10         1.1190    4.5320    1.2870 c3        1 MOL      0.083916
     25 C11         2.5090    4.7980    0.6370 c3        1 MOL     -0.208220
     26 C12         3.5180    4.9800    1.8210 c3        1 MOL      0.104877
     27 N3          3.3020    6.3570    2.3290 n4        1 MOL     -0.536932
     28 H8         -1.0660    2.2520    1.1070 hn        1 MOL      0.357365
     29 H9         -1.6200    5.0840    1.6480 h1        1 MOL      0.097663
     30 H10         0.0110    5.5410   -0.2370 hc        1 MOL      0.042894
     31 H11         0.2970    3.8220   -0.4960 hc        1 MOL      0.042894
     32 H12         0.9870    3.6020    1.8250 hc        1 MOL      0.011752
     33 H13         0.9370    5.3400    1.9880 hc        1 MOL      0.011752
     34 H14         2.4650    5.6740   -0.0000 hc        1 MOL      0.066582
     35 H15         2.7500    3.8810    0.1070 hc        1 MOL      0.066582
     36 H16         4.5110    5.0060    1.3770 hx        1 MOL      0.101823
     37 H17         3.4900    4.2580    2.6460 hx        1 MOL      0.101823
     38 H18         2.3760    6.5580    2.6690 hn        1 MOL      0.365069
     39 H19         3.8440    6.4290    3.1830 hn        1 MOL      0.365069
     40 H20         3.5750    7.0010    1.5890 hn        1 MOL      0.365069
     41 N4         -3.2110    3.7070   -0.6230 n         1 MOL     -0.296749
     42 C13        -4.1450    3.9180   -1.7370 c3        1 MOL      0.175148
     43 C14        -5.6100    3.9630   -1.3260 c         1 MOL      0.390157
     44 O6         -6.3490    4.9020   -1.5560 o         1 MOL     -0.522505
     45 C15        -3.8590    2.9710   -2.9270 c3        1 MOL      0.215432
     46 C16        -2.2690    2.7280   -3.2210 c         1 MOL      0.472568
     47 O7         -1.6850    1.8920   -2.5230 o         1 MOL     -0.596779
     48 O8         -1.8290    3.5620   -4.0020 o         1 MOL     -0.596779
     49 H21        -3.0080    2.7840   -0.2710 hn        1 MOL      0.055527
     50 H22        -3.9840    4.8900   -2.1890 h1        1 MOL      0.027739
     51 H23        -4.3730    3.4590   -3.7630 hc        1 MOL     -0.075478
     52 H24        -4.3350    2.0020   -2.7720 hc        1 MOL     -0.075478
     53 N5         -6.0920    3.0100   -0.4870 n         1 MOL     -0.319365
     54 C17        -7.5130    2.8280   -0.3090 c3        1 MOL      0.032046
     55 C18        -7.9470    1.4120   -0.7960 c         1 MOL      0.442636
     56 O9         -9.1220    1.2070   -1.1940 o         1 MOL     -0.587252
     57 H25        -5.4660    2.2850   -0.1830 hn        1 MOL      0.266667
     58 H26        -8.0570    3.5940   -0.8520 h1        1 MOL      0.065179
     59 H27        -7.8140    2.9170    0.7360 h1        1 MOL      0.065179
     60 N6         -7.0570    0.4380   -0.8900 n         1 MOL     -0.203347
     61 C19        -7.2670   -0.7800   -1.7130 c3        1 MOL     -0.077182
     62 C20        -7.1780   -2.1880   -1.0160 c         1 MOL      0.412133
     63 O10        -7.5260   -3.2630   -1.5780 o         1 MOL     -0.518387
     64 C21        -6.2000   -0.8000   -2.8420 c3        1 MOL     -0.192495
     65 C22        -4.7590   -0.8800   -2.3740 c         1 MOL      0.896501
     66 O11        -3.7740   -0.7840   -3.1310 o         1 MOL     -0.840152
     67 O12        -4.4910   -1.0740   -1.1740 o         1 MOL     -0.840152
     68 H28        -6.2350    0.4310   -0.3030 hn        1 MOL      0.157650
     69 H29        -8.2390   -0.7580   -2.2100 h1        1 MOL      0.142121
     70 H30        -6.1960    0.1220   -3.4070 hc        1 MOL      0.058204
     71 H31        -6.3630   -1.5990   -3.5600 hc        1 MOL      0.058204
     72 N7         -6.8850   -2.2200    0.2920 n         1 MOL     -0.248626
     73 C23        -6.8000   -3.5270    1.0000 c3        1 MOL     -0.222736
     74 C24        -5.4820   -4.3020    0.8360 c         1 MOL      0.581265
     75 O13        -5.4300   -5.4620    1.2260 o         1 MOL     -0.577889
     76 H32        -6.4960   -1.4070    0.7420 hn        1 MOL      0.234729
     77 H33        -7.6020   -4.2060    0.7110 h1        1 MOL      0.128389
     78 H34        -6.8320   -3.2450    2.0470 h1        1 MOL      0.128389
     79 N8         -4.3760   -3.7300    0.3040 n         1 MOL     -0.302049
     80 C25        -3.1040   -4.4700    0.0880 c3        1 MOL     -0.035224
     81 C26        -1.8410   -3.7070    0.5450 c         1 MOL      0.621605
     82 O14        -1.8930   -2.5070    0.4610 o         1 MOL     -0.669319
     83 C27        -2.8670   -4.8460   -1.4260 c3        1 MOL      0.194452
     84 C28        -4.1380   -5.2800   -2.0820 c3        1 MOL     -0.518204
     85 O15        -2.2190   -3.7010   -2.1010 oh        1 MOL     -0.614122
     86 H35        -4.4050   -2.7810   -0.0310 hn        1 MOL      0.299756
     87 H36        -3.1540   -5.3700    0.7020 h1        1 MOL      0.074075
     88 H37        -2.2340   -5.7290   -1.4910 h1        1 MOL      0.034261
     89 H38        -2.2320   -3.9020   -3.0470 ho        1 MOL      0.423388
     90 H39        -4.7090   -5.8780   -1.3570 hc        1 MOL      0.161280
     91 H40        -4.8260   -4.4480   -2.2410 hc        1 MOL      0.161280
     92 H41        -3.8850   -5.8890   -2.9490 hc        1 MOL      0.161280
     93 N9         -0.7360   -4.3030    0.9820 n         1 MOL     -0.521601
     94 C29         0.5250   -3.6260    1.3060 c3        1 MOL      0.067504
     95 C30         1.6400   -4.0560    0.2470 c         1 MOL      0.373934
     96 O16         1.9800   -5.2210    0.0320 o         1 MOL     -0.536132
     97 C31         0.9680   -3.8440    2.8090 c3        1 MOL      0.169826
     98 C32        -0.2050   -3.3160    3.6970 c3        1 MOL     -0.118397
     99 C33         2.3500   -3.3160    3.2620 c3        1 MOL     -0.360480
    100 C34        -0.3950   -1.8000    3.8040 c3        1 MOL      0.081839
    101 H42        -0.7370   -5.3160    0.9960 hn        1 MOL      0.297720
    102 H43         0.3870   -2.5500    1.2070 h1        1 MOL      0.137139
    103 H44         0.8730   -4.9180    2.9830 hc        1 MOL     -0.004446
    104 H45        -0.0280   -3.6790    4.7090 hc        1 MOL      0.027388
    105 H46        -1.1950   -3.6180    3.3840 hc        1 MOL      0.027388
    106 H47         2.3710   -2.2580    3.4990 hc        1 MOL      0.065621
    107 H48         2.6780   -3.8740    4.1430 hc        1 MOL      0.065621
    108 H49         3.0170   -3.4070    2.4120 hc        1 MOL      0.065621
    109 H50        -1.0770   -1.6400    4.6370 hc        1 MOL      0.011227
    110 H51         0.5070   -1.2470    4.0840 hc        1 MOL      0.011227
    111 H52        -0.8250   -1.4280    2.8800 hc        1 MOL      0.011227
    112 N10         2.2760   -3.0280   -0.3160 n         1 MOL     -0.056855
    113 C35         3.3310   -3.1670   -1.2810 c3        1 MOL      0.036396
    114 C36         4.5620   -2.4140   -0.6750 c         1 MOL      0.327246
    115 O17         4.5460   -1.9210    0.4710 o         1 MOL     -0.273424
    116 C37         3.0150   -2.6090   -2.7030 c3        1 MOL      0.214456
    117 C38         1.9100   -3.4420   -3.3630 c3        1 MOL     -0.524750
    118 O18         2.5520   -1.2640   -2.6570 oh        1 MOL     -0.580365
    119 H53         2.0250   -2.0830   -0.0890 hn        1 MOL      0.192124
    120 H54         3.7670   -4.1360   -1.4820 h1        1 MOL      0.069258
    121 H55         3.8960   -2.5730   -3.3490 h1        1 MOL      0.044492
    122 H56         1.6640   -1.3410   -2.2950 ho        1 MOL      0.323347
    123 H57         2.2490   -4.4790   -3.4750 hc        1 MOL      0.143841
    124 H58         0.9990   -3.3590   -2.7720 hc        1 MOL      0.143841
    125 H59         1.6480   -2.9830   -4.3080 hc        1 MOL      0.143841
    126 N11         5.7200   -2.5980   -1.3550 n         1 MOL     -0.392220
    127 C39         7.0300   -2.3290   -0.7370 c3        1 MOL     -0.094029
    128 C40         7.2320   -0.9020   -0.1550 c         1 MOL      0.266097
    129 O19         7.7890   -0.6220    0.9010 o         1 MOL     -0.445412
    130 C41         8.1550   -2.6400   -1.6960 c3        1 MOL      0.306765
    131 C42         9.5470   -2.3140   -1.1950 c3        1 MOL     -0.190001
    132 O20         8.2500   -4.0090   -2.0690 oh        1 MOL     -0.570433
    133 H60         5.6100   -2.9050   -2.3030 hn        1 MOL      0.248086
    134 H61         7.1530   -2.9400    0.1620 h1        1 MOL      0.154104
    135 H62         7.9440   -2.0530   -2.5890 h1        1 MOL     -0.024676
    136 H63         7.4700   -4.1390   -2.6030 ho        1 MOL      0.366911
    137 H64         9.6150   -1.2360   -1.3440 hc        1 MOL      0.074002
    138 H65         9.7610   -2.5410   -0.1480 hc        1 MOL      0.074002
    139 H66        10.3330   -2.7490   -1.8160 hc        1 MOL      0.074002
    140 N12         6.5650    0.0720   -0.7960 n         1 MOL     -0.088959
    141 C43         6.5500    1.4510   -0.3670 c3        1 MOL     -0.022928
    142 C44         5.7300    1.7180    0.8600 c         1 MOL      0.414972
    143 O21         6.0240    2.6250    1.6550 o         1 MOL     -0.562790
    144 C45         5.9580    2.2910   -1.4810 c3        1 MOL     -0.057002
    145 C46         6.8950    2.3250   -2.7070 c3        1 MOL     -0.204407
    146 C47         6.2010    2.8300   -3.9360 c3        1 MOL      0.301478
    147 C48         7.3030    3.3270   -4.9360 c3        1 MOL     -0.138624
    148 N13         6.6470    3.6770   -6.2040 n4        1 MOL     -0.219696
    149 H67         6.0490    0.0140   -1.6650 hn        1 MOL      0.188654
    150 H68         7.5420    1.8490   -0.1760 h1        1 MOL      0.094089
    151 H69         5.7920    3.2510   -1.0050 hc        1 MOL      0.046352
    152 H70         4.9720    2.0120   -1.8650 hc        1 MOL      0.046352
    153 H71         7.3460    1.3340   -2.7890 hc        1 MOL      0.032316
    154 H72         7.6010    3.1010   -2.4090 hc        1 MOL      0.032316
    155 H73         5.4550    3.5770   -3.6570 hc        1 MOL     -0.028064
    156 H74         5.6020    2.0150   -4.3560 hc        1 MOL     -0.028064
    157 H75         7.9050    2.4330   -5.1180 hx        1 MOL      0.117355
    158 H76         7.8460    4.1860   -4.5560 hx        1 MOL      0.117355
    159 H77         6.2330    2.9020   -6.7000 hn        1 MOL      0.254514
    160 H78         6.0960    4.5250   -6.2260 hn        1 MOL      0.254514
    161 H79         7.3480    3.9890   -6.8640 hn        1 MOL      0.254514
    162 N14         4.6920    0.9260    1.0220 n         1 MOL     -0.214955
    163 C49         3.8280    0.9260    2.1730 c3        1 MOL     -0.093784
    164 C50         4.4100    0.0920    3.3500 c         1 MOL      0.464959
    165 O22         4.3550    0.4560    4.5640 o         1 MOL     -0.534780
    166 C51         2.5260    0.1880    1.6940 c3        1 MOL      0.161013
    167 C52         1.9780    0.8250    0.4780 c3        1 MOL      0.075526
    168 C53         0.6740    0.2030    0.1420 c         1 MOL      0.597945
    169 O23        -0.3940    0.8010    0.3900 o         1 MOL     -0.726928
    170 O24         0.5610   -0.8730   -0.5460 o         1 MOL     -0.726928
    171 H80         4.5460    0.1890    0.3420 hn        1 MOL      0.132239
    172 H81         3.5300    1.9560    2.3890 h1        1 MOL      0.081188
    173 H82         1.8840    0.3830    2.5500 hc        1 MOL      0.002988
    174 H83         2.6930   -0.8760    1.5730 hc        1 MOL      0.002988
    175 H84         2.6520    0.7560   -0.3730 hc        1 MOL     -0.057819
    176 H85         1.8600    1.8830    0.6910 hc        1 MOL     -0.057819
    177 N15         5.2750   -0.8970    3.0060 n         1 MOL     -0.033675
    178 C54         5.9760   -1.6660    3.9980 c3        1 MOL     -0.484124
    179 H86         5.4890   -1.5400    4.9650 h1        1 MOL      0.158599
    180 H87         5.9620   -2.7200    3.7190 h1        1 MOL      0.158599
    181 H88         7.0080   -1.3190    4.0630 h1        1 MOL      0.158599
    182 H89         5.3900   -1.2100    2.0460 hn        1 MOL      0.151621
    183 Ca1        -1.9820   -0.4650   -1.2830 Ca        1 MOL      1.779174
    184 O25        -0.5050   -0.6790   -3.4580 oh        1 MOL     -0.763530
    185 H90         0.0880    0.0550   -3.6280 ho        1 MOL      0.389279
    186 H91        -0.3510   -1.2780   -4.1840 ho        1 MOL      0.389279
@<TRIPOS>BOND
     1    1    2 1   
     2    1    4 1   
     3    1    5 1   
     4    1    6 1   
     5    2    3 2   
     6    2    7 1   
     7    7    8 1   
     8    7   15 1   
     9    8    9 1   
    10    8   11 1   
    11    8   16 1   
    12    9   10 2   
    13    9   19 1   
    14   11   12 1   
    15   11   17 1   
    16   11   18 1   
    17   12   13 1   
    18   12   14 1   
    19   19   20 1   
    20   19   28 1   
    21   20   21 1   
    22   20   23 1   
    23   20   29 1   
    24   21   22 2   
    25   21   41 1   
    26   23   24 1   
    27   23   30 1   
    28   23   31 1   
    29   24   25 1   
    30   24   32 1   
    31   24   33 1   
    32   25   26 1   
    33   25   34 1   
    34   25   35 1   
    35   26   27 1   
    36   26   36 1   
    37   26   37 1   
    38   27   38 1   
    39   27   39 1   
    40   27   40 1   
    41   41   42 1   
    42   41   49 1   
    43   42   43 1   
    44   42   45 1   
    45   42   50 1   
    46   43   44 2   
    47   43   53 1   
    48   45   46 1   
    49   45   51 1   
    50   45   52 1   
    51   46   47 1   
    52   46   48 1   
    53   53   54 1   
    54   53   57 1   
    55   54   55 1   
    56   54   58 1   
    57   54   59 1   
    58   55   56 2   
    59   55   60 1   
    60   60   61 1   
    61   60   68 1   
    62   61   62 1   
    63   61   64 1   
    64   61   69 1   
    65   62   63 2   
    66   62   72 1   
    67   64   65 1   
    68   64   70 1   
    69   64   71 1   
    70   65   66 1   
    71   65   67 1   
    72   72   73 1   
    73   72   76 1   
    74   73   74 1   
    75   73   77 1   
    76   73   78 1   
    77   74   75 2   
    78   74   79 1   
    79   79   80 1   
    80   79   86 1   
    81   80   81 1   
    82   80   83 1   
    83   80   87 1   
    84   81   82 2   
    85   81   93 1   
    86   83   84 1   
    87   83   85 1   
    88   83   88 1   
    89   84   90 1   
    90   84   91 1   
    91   84   92 1   
    92   85   89 1   
    93   93   94 1   
    94   93  101 1   
    95   94   95 1   
    96   94   97 1   
    97   94  102 1   
    98   95   96 2   
    99   95  112 1   
   100   97   98 1   
   101   97   99 1   
   102   97  103 1   
   103   98  100 1   
   104   98  104 1   
   105   98  105 1   
   106   99  106 1   
   107   99  107 1   
   108   99  108 1   
   109  100  109 1   
   110  100  110 1   
   111  100  111 1   
   112  112  113 1   
   113  112  119 1   
   114  113  114 1   
   115  113  116 1   
   116  113  120 1   
   117  114  115 2   
   118  114  126 1   
   119  116  117 1   
   120  116  118 1   
   121  116  121 1   
   122  117  123 1   
   123  117  124 1   
   124  117  125 1   
   125  118  122 1   
   126  126  127 1   
   127  126  133 1   
   128  127  128 1   
   129  127  130 1   
   130  127  134 1   
   131  128  129 2   
   132  128  140 1   
   133  130  131 1   
   134  130  132 1   
   135  130  135 1   
   136  131  137 1   
   137  131  138 1   
   138  131  139 1   
   139  132  136 1   
   140  140  141 1   
   141  140  149 1   
   142  141  142 1   
   143  141  144 1   
   144  141  150 1   
   145  142  143 2   
   146  142  162 1   
   147  144  145 1   
   148  144  151 1   
   149  144  152 1   
   150  145  146 1   
   151  145  153 1   
   152  145  154 1   
   153  146  147 1   
   154  146  155 1   
   155  146  156 1   
   156  147  148 1   
   157  147  157 1   
   158  147  158 1   
   159  148  159 1   
   160  148  160 1   
   161  148  161 1   
   162  162  163 1   
   163  162  171 1   
   164  163  164 1   
   165  163  166 1   
   166  163  172 1   
   167  164  165 2   
   168  164  177 1   
   169  166  167 1   
   170  166  173 1   
   171  166  174 1   
   172  167  168 1   
   173  167  175 1   
   174  167  176 1   
   175  168  169 1   
   176  168  170 1   
   177  177  178 1   
   178  177  182 1   
   179  178  179 1   
   180  178  180 1   
   181  178  181 1   
   182  184  185 1   
   183  184  186 1   
@<TRIPOS>SUBSTRUCTURE
     1 MOL         1 TEMP              0 ****  ****    0 ROOT
