@<TRIPOS>MOLECULE
MOL
  183   181     1     0     0
SMALL
resp


@<TRIPOS>ATOM
      1 C1         -0.5080    1.7100    6.3700 c3        1 MOL     -0.319562
      2 C2         -0.9850    1.6400    4.8500 c         1 MOL      0.722592
      3 O1         -0.1000    1.9000    3.9730 o         1 MOL     -0.623066
      4 H1         -1.2850    2.1810    6.9720 hc        1 MOL      0.076469
      5 H2         -0.3230    0.7030    6.7400 hc        1 MOL      0.076469
      6 H3          0.4090    2.2970    6.4360 hc        1 MOL      0.076469
      7 N1         -2.2300    1.3500    4.5240 n         1 MOL     -0.627277
      8 C3         -2.7710    1.2400    3.2030 c3        1 MOL      0.060672
      9 C4         -3.1990    2.6600    2.8640 c         1 MOL      0.750050
     10 O2         -4.1120    3.2360    3.4870 o         1 MOL     -0.592044
     11 C5         -3.9050    0.2000    3.0900 c3        1 MOL     -0.265551
     12 C6         -4.5060    0.0070    1.6680 c         1 MOL      0.800377
     13 O3         -5.5760   -0.6420    1.5640 o         1 MOL     -0.716227
     14 O4         -3.9450    0.5080    0.6780 o         1 MOL     -0.716227
     15 H4         -2.8330    1.1740    5.3160 hn        1 MOL      0.334773
     16 H5         -1.9790    0.9720    2.5030 h1        1 MOL      0.055940
     17 H6         -4.6770    0.4830    3.8120 hc        1 MOL      0.058560
     18 H7         -3.5850   -0.8180    3.3150 hc        1 MOL      0.058560
     19 N2         -2.3890    3.2520    1.9320 n         1 MOL     -0.574592
     20 C7         -2.5400    4.6810    1.4940 c3        1 MOL     -0.203192
     21 C8         -3.6930    4.9480    0.4910 c         1 MOL      0.680508
     22 O5         -4.3610    5.9450    0.6270 o         1 MOL     -0.599987
     23 C9         -1.1790    5.1930    0.8790 c3        1 MOL      0.336567
     24 C10        -0.1080    4.8640    1.9490 c3        1 MOL      0.166489
     25 C11        -1.2880    6.7370    0.7490 c3        1 MOL     -0.399045
     26 C12         1.2210    5.4140    1.5570 c3        1 MOL     -0.269173
     27 H8         -1.8180    2.6970    1.3060 hn        1 MOL      0.300781
     28 H9         -2.7900    5.2970    2.3630 h1        1 MOL      0.099450
     29 H10        -0.9960    4.7590   -0.1050 hc        1 MOL     -0.010468
     30 H11         0.1130    3.7980    2.0360 hc        1 MOL     -0.012792
     31 H12        -0.3650    5.3520    2.8830 hc        1 MOL     -0.012792
     32 H13        -2.0560    6.9610    0.0010 hc        1 MOL      0.076644
     33 H14        -1.5670    7.2260    1.6810 hc        1 MOL      0.076644
     34 H15        -0.3930    7.1320    0.2890 hc        1 MOL      0.076644
     35 H16         1.9910    4.8830    2.1110 hc        1 MOL      0.051719
     36 H17         1.3200    5.0980    0.5260 hc        1 MOL      0.051719
     37 H18         1.3130    6.4750    1.7770 hc        1 MOL      0.051719
     38 N3         -3.9530    3.9520   -0.3790 n         1 MOL     -0.638842
     39 C13        -4.8690    4.0030   -1.5250 c3        1 MOL      0.421157
     40 C14        -6.1230    3.1050   -1.4350 c         1 MOL      0.335343
     41 O6         -7.0130    3.4150   -2.1990 o         1 MOL     -0.550882
     42 C15        -4.2120    3.8200   -2.9140 c3        1 MOL     -0.471025
     43 C16        -3.3100    2.6120   -3.0500 c         1 MOL      0.910132
     44 O7         -2.4040    2.5070   -3.8960 o         1 MOL     -0.748935
     45 O8         -3.5600    1.6510   -2.3740 o         1 MOL     -0.748935
     46 H19        -3.3610    3.1470   -0.2650 hn        1 MOL      0.370391
     47 H20        -5.3350    4.9920   -1.5750 h1        1 MOL      0.015003
     48 H21        -3.6930    4.6960   -3.2810 hc        1 MOL      0.091961
     49 H22        -5.0730    3.5930   -3.5460 hc        1 MOL      0.091961
     50 N4         -6.2480    2.0820   -0.5630 n         1 MOL     -0.128259
     51 C17        -7.5130    1.4790   -0.1190 c3        1 MOL     -0.111405
     52 C18        -7.9500    0.1490   -0.8010 c         1 MOL      0.501732
     53 O9         -9.1370   -0.2000   -0.8510 o         1 MOL     -0.632555
     54 H23        -5.4580    1.9040    0.0450 hn        1 MOL      0.135312
     55 H24        -8.3550    2.1580    0.0240 h1        1 MOL      0.074120
     56 H25        -7.2450    1.1570    0.8910 h1        1 MOL      0.074120
     57 N5         -7.0680   -0.5970   -1.4060 n         1 MOL     -0.172775
     58 C19        -7.2280   -1.9090   -2.0690 c3        1 MOL     -0.090581
     59 C20        -7.1260   -3.1010   -1.0280 c         1 MOL      0.416800
     60 O10        -7.2290   -4.2660   -1.4170 o         1 MOL     -0.551708
     61 C21        -6.1520   -2.0250   -3.1220 c3        1 MOL     -0.144202
     62 C22        -4.8120   -1.6660   -2.6190 c         1 MOL      0.698396
     63 O11        -3.9690   -1.1940   -3.4060 o         1 MOL     -0.725833
     64 O12        -4.4980   -1.7350   -1.4090 o         1 MOL     -0.725833
     65 H26        -6.1350   -0.2260   -1.2950 hn        1 MOL      0.173582
     66 H27        -8.1910   -1.9300   -2.5650 h1        1 MOL      0.124227
     67 H28        -6.3990   -1.3600   -3.9540 hc        1 MOL      0.055651
     68 H29        -6.0780   -2.9900   -3.6140 hc        1 MOL      0.055651
     69 N6         -6.9030   -2.8360    0.2950 n         1 MOL     -0.244582
     70 C23        -6.8640   -3.8910    1.3720 c3        1 MOL     -0.062183
     71 C24        -5.4750   -4.5350    1.5120 c         1 MOL      0.546047
     72 O13        -5.3970   -5.5070    2.2700 o         1 MOL     -0.599037
     73 H30        -6.8040   -1.8730    0.5770 hn        1 MOL      0.269793
     74 H31        -7.6440   -4.6450    1.2550 h1        1 MOL      0.061981
     75 H32        -7.1930   -3.3290    2.2530 h1        1 MOL      0.061981
     76 N7         -4.4450   -3.9830    0.8860 n         1 MOL     -0.178076
     77 C25        -3.0810   -4.4610    0.8550 c3        1 MOL      0.006909
     78 C26        -2.0470   -3.3700    1.0270 c         1 MOL      0.645646
     79 O14        -2.1900   -2.1980    0.7210 o         1 MOL     -0.630709
     80 C27        -2.9500   -5.4130   -0.3540 c3        1 MOL      0.052950
     81 C28        -3.2730   -4.8230   -1.7540 c3        1 MOL     -0.233875
     82 C29        -2.0330   -4.0760   -2.3300 c         1 MOL      0.726400
     83 N8         -1.1890   -4.7250   -3.0520 n         1 MOL     -0.808304
     84 O15        -1.7690   -2.9310   -2.1420 o         1 MOL     -0.606692
     85 H33        -4.5830   -3.2290    0.2320 hn        1 MOL      0.111653
     86 H34        -2.9420   -5.1490    1.6910 h1        1 MOL      0.030397
     87 H35        -3.7050   -6.1650   -0.1300 hc        1 MOL     -0.003095
     88 H36        -1.9990   -5.9440   -0.3760 hc        1 MOL     -0.003095
     89 H37        -4.1090   -4.1120   -1.7290 hc        1 MOL      0.075608
     90 H38        -3.5530   -5.5860   -2.4810 hc        1 MOL      0.075608
     91 H39        -1.3380   -5.6810   -3.3600 hn        1 MOL      0.356443
     92 H40        -0.5440   -4.0940   -3.5010 hn        1 MOL      0.356443
     93 N9         -0.8320   -3.7490    1.5590 n         1 MOL     -0.590663
     94 C30         0.3070   -2.7930    1.8750 c3        1 MOL      0.135501
     95 C31         1.5860   -3.3540    1.1610 c         1 MOL      0.367327
     96 O16         2.1000   -4.4200    1.4080 o         1 MOL     -0.574890
     97 C32         0.4220   -2.6440    3.3650 c3        1 MOL      0.337061
     98 C33         1.5510   -1.6980    3.8080 c3        1 MOL     -0.315552
     99 C34        -0.9170   -2.2320    4.0050 c3        1 MOL     -0.315552
    100 H41        -0.6350   -4.7190    1.7770 hn        1 MOL      0.309007
    101 H42         0.1400   -1.8180    1.4360 h1        1 MOL      0.067373
    102 H43         0.6410   -3.6740    3.6430 hc        1 MOL     -0.081550
    103 H44         2.3830   -1.6480    3.1090 hc        1 MOL      0.066327
    104 H45         1.1300   -0.6920    3.8780 hc        1 MOL      0.066327
    105 H46         1.9080   -2.0810    4.7630 hc        1 MOL      0.066327
    106 H47        -1.6020   -3.0860    4.0480 hc        1 MOL      0.066327
    107 H48        -0.6750   -2.0280    5.0490 hc        1 MOL      0.066327
    108 H49        -1.3620   -1.4440    3.4090 hc        1 MOL      0.066327
    109 N10         2.0060   -2.5120    0.2590 n         1 MOL     -0.109803
    110 C35         3.1500   -2.8940   -0.6410 c3        1 MOL      0.163076
    111 C36         4.3520   -2.0670   -0.2440 c         1 MOL      0.328991
    112 O17         4.3120   -1.2460    0.6730 o         1 MOL     -0.329782
    113 C37         2.7240   -2.7390   -2.1110 c3        1 MOL     -0.472074
    114 C38         3.0090   -1.3820   -2.6810 c         1 MOL      0.640804
    115 N11         2.1930   -0.3180   -2.4810 n         1 MOL     -0.693780
    116 O18         4.1180   -1.1910   -3.2020 o         1 MOL     -0.602968
    117 H50         1.4970   -1.6410    0.1410 hn        1 MOL      0.115457
    118 H51         3.4310   -3.9350   -0.5170 h1        1 MOL      0.062835
    119 H52         1.6630   -2.9710   -2.1590 hc        1 MOL      0.143317
    120 H53         3.3390   -3.4850   -2.6220 hc        1 MOL      0.143317
    121 H54         1.4430   -0.2850   -1.8000 hn        1 MOL      0.374120
    122 H55         2.1940    0.3800   -3.1980 hn        1 MOL      0.374120
    123 N12         5.4970   -2.4190   -0.8210 n         1 MOL     -0.517452
    124 C39         6.7880   -1.8880   -0.4690 c3        1 MOL      0.213692
    125 C40         6.8400   -0.3880   -0.4870 c         1 MOL      0.694161
    126 O19         7.2020    0.2430    0.4360 o         1 MOL     -0.543321
    127 C41         7.8760   -2.6010   -1.2610 c3        1 MOL     -0.253828
    128 C42         9.2880   -2.2830   -0.6560 ca        1 MOL      0.106087
    129 C43         9.6290   -2.7490    0.6210 ca        1 MOL     -0.275004
    130 C44        10.1650   -1.4130   -1.3710 ca        1 MOL     -0.275004
    131 C45        10.8560   -2.3140    1.1070 ca        1 MOL     -0.105527
    132 C46        11.4470   -1.1060   -0.8880 ca        1 MOL     -0.105527
    133 C47        11.8110   -1.6220    0.3250 ca        1 MOL      0.186261
    134 O20        12.9920   -1.1700    0.8260 oh        1 MOL     -0.478250
    135 H56         5.3890   -3.1410   -1.5050 hn        1 MOL      0.295034
    136 H57         6.9450   -2.1740    0.5760 h1        1 MOL      0.068960
    137 H58         7.9310   -2.3200   -2.3110 hc        1 MOL      0.090403
    138 H59         7.7990   -3.6770   -1.1640 hc        1 MOL      0.090403
    139 H60         8.8900   -3.3750    1.1060 ha        1 MOL      0.162083
    140 H61         9.8570   -0.9310   -2.2910 ha        1 MOL      0.162083
    141 H62        11.0610   -2.5530    2.1450 ha        1 MOL      0.116071
    142 H63        12.1340   -0.4710   -1.4310 ha        1 MOL      0.116071
    143 H64        13.2880   -0.5510    0.1540 ho        1 MOL      0.353061
    144 N13         6.1770    0.2440   -1.4780 n         1 MOL     -0.639854
    145 C48         5.8790    1.7220   -1.5070 c3        1 MOL      0.072625
    146 C49         5.2020    2.3990   -0.2980 c         1 MOL      0.337852
    147 O21         5.4150    3.5190    0.1460 o         1 MOL     -0.547044
    148 C50         5.2470    2.1940   -2.8810 c3        1 MOL     -0.073157
    149 C51         5.4410    3.7040   -3.1100 c3        1 MOL     -0.101515
    150 C52         4.8940    4.0140   -4.4470 c         1 MOL      0.687129
    151 O22         5.7030    4.4170   -5.2700 o         1 MOL     -0.744859
    152 O23         3.6370    3.8460   -4.6190 o         1 MOL     -0.744859
    153 H65         5.7890   -0.3440   -2.1920 hn        1 MOL      0.329607
    154 H66         6.8850    2.1640   -1.4630 h1        1 MOL      0.066827
    155 H67         4.1960    1.9130   -2.7900 hc        1 MOL      0.052282
    156 H68         5.7480    1.6420   -3.6760 hc        1 MOL      0.052282
    157 H69         6.4990    3.9580   -3.0210 hc        1 MOL      0.006539
    158 H70         4.9040    4.3050   -2.3770 hc        1 MOL      0.006539
    159 N14         4.3770    1.6000    0.3800 n         1 MOL      0.093499
    160 C53         3.6140    1.9360    1.5250 c3        1 MOL     -0.068285
    161 C54         4.1720    1.4280    2.8580 c         1 MOL      0.364488
    162 O24         3.8250    1.9220    3.9580 o         1 MOL     -0.574471
    163 C55         2.1610    1.4490    1.3910 c3        1 MOL      0.184939
    164 C56         1.4250    1.9730    0.2440 c3        1 MOL     -0.202465
    165 C57         0.1000    1.2240   -0.0780 c         1 MOL      0.960603
    166 O25        -0.9660    1.8050   -0.2200 o         1 MOL     -0.831274
    167 O26         0.1440   -0.0260   -0.3190 o         1 MOL     -0.831274
    168 H71         4.4970    0.6360    0.1110 hn        1 MOL      0.115264
    169 H72         3.5900    3.0110    1.6870 h1        1 MOL      0.098624
    170 H73         1.4960    1.7820    2.1800 hc        1 MOL      0.008416
    171 H74         2.1620    0.3520    1.3850 hc        1 MOL      0.008416
    172 H75         1.9990    1.9210   -0.6820 hc        1 MOL      0.005352
    173 H76         1.3870    3.0180    0.5290 hc        1 MOL      0.005352
    174 N15         5.0570    0.4900    2.7670 n         1 MOL      0.022400
    175 C58         6.0000   -0.0050    3.8800 c3        1 MOL     -0.354475
    176 H77         6.9850    0.4440    3.7480 h1        1 MOL      0.123012
    177 H78         5.5980    0.2830    4.8520 h1        1 MOL      0.123012
    178 H79         6.0860   -1.0900    3.8290 h1        1 MOL      0.123012
    179 H80         5.2660    0.1710    1.8350 hn        1 MOL     -0.039574
    180 Ca1        -2.3590   -0.4000   -1.2190 Ca        1 MOL      1.790853
    181 O27        -1.0350    0.1050   -3.5620 oh        1 MOL     -0.918079
    182 H81        -0.8730   -0.2180   -4.4420 ho        1 MOL      0.424174
    183 H82        -1.6430    0.8370   -3.6870 ho        1 MOL      0.424174
@<TRIPOS>BOND
     1    1    2 1   
     2    1    4 1   
     3    1    5 1   
     4    1    6 1   
     5    2    3 2   
     6    2    7 1   
     7    7    8 1   
     8    7   15 1   
     9    8    9 1   
    10    8   11 1   
    11    8   16 1   
    12    9   10 2   
    13    9   19 1   
    14   11   12 1   
    15   11   17 1   
    16   11   18 1   
    17   12   13 1   
    18   12   14 1   
    19   19   20 1   
    20   19   27 1   
    21   20   21 1   
    22   20   23 1   
    23   20   28 1   
    24   21   22 2   
    25   21   38 1   
    26   23   24 1   
    27   23   25 1   
    28   23   29 1   
    29   24   26 1   
    30   24   30 1   
    31   24   31 1   
    32   25   32 1   
    33   25   33 1   
    34   25   34 1   
    35   26   35 1   
    36   26   36 1   
    37   26   37 1   
    38   38   39 1   
    39   38   46 1   
    40   39   40 1   
    41   39   42 1   
    42   39   47 1   
    43   40   41 2   
    44   40   50 1   
    45   42   43 1   
    46   42   48 1   
    47   42   49 1   
    48   43   44 1   
    49   43   45 1   
    50   50   51 1   
    51   50   54 1   
    52   51   52 1   
    53   51   55 1   
    54   51   56 1   
    55   52   53 2   
    56   52   57 1   
    57   57   58 1   
    58   57   65 1   
    59   58   59 1   
    60   58   61 1   
    61   58   66 1   
    62   59   60 2   
    63   59   69 1   
    64   61   62 1   
    65   61   67 1   
    66   61   68 1   
    67   62   63 1   
    68   62   64 1   
    69   69   70 1   
    70   69   73 1   
    71   70   71 1   
    72   70   74 1   
    73   70   75 1   
    74   71   72 2   
    75   71   76 1   
    76   76   77 1   
    77   76   85 1   
    78   77   78 1   
    79   77   80 1   
    80   77   86 1   
    81   78   79 2   
    82   78   93 1   
    83   80   81 1   
    84   80   87 1   
    85   80   88 1   
    86   81   82 1   
    87   81   89 1   
    88   81   90 1   
    89   82   83 1   
    90   82   84 2   
    91   83   91 1   
    92   83   92 1   
    93   93   94 1   
    94   93  100 1   
    95   94   95 1   
    96   94   97 1   
    97   94  101 1   
    98   95   96 2   
    99   95  109 1   
   100   97   98 1   
   101   97   99 1   
   102   97  102 1   
   103   98  103 1   
   104   98  104 1   
   105   98  105 1   
   106   99  106 1   
   107   99  107 1   
   108   99  108 1   
   109  109  110 1   
   110  109  117 1   
   111  110  111 1   
   112  110  113 1   
   113  110  118 1   
   114  111  112 2   
   115  111  123 1   
   116  113  114 1   
   117  113  119 1   
   118  113  120 1   
   119  114  115 1   
   120  114  116 2   
   121  115  121 1   
   122  115  122 1   
   123  123  124 1   
   124  123  135 1   
   125  124  125 1   
   126  124  127 1   
   127  124  136 1   
   128  125  126 2   
   129  125  144 1   
   130  127  128 1   
   131  127  137 1   
   132  127  138 1   
   133  128  129 ar  
   134  128  130 ar  
   135  129  131 ar  
   136  129  139 1   
   137  130  132 ar  
   138  130  140 1   
   139  131  133 ar  
   140  131  141 1   
   141  132  133 ar  
   142  132  142 1   
   143  133  134 1   
   144  134  143 1   
   145  144  145 1   
   146  144  153 1   
   147  145  146 1   
   148  145  148 1   
   149  145  154 1   
   150  146  147 2   
   151  146  159 1   
   152  148  149 1   
   153  148  155 1   
   154  148  156 1   
   155  149  150 1   
   156  149  157 1   
   157  149  158 1   
   158  150  151 1   
   159  150  152 1   
   160  159  160 1   
   161  159  168 1   
   162  160  161 1   
   163  160  163 1   
   164  160  169 1   
   165  161  162 2   
   166  161  174 1   
   167  163  164 1   
   168  163  170 1   
   169  163  171 1   
   170  164  165 1   
   171  164  172 1   
   172  164  173 1   
   173  165  166 1   
   174  165  167 1   
   175  174  175 1   
   176  174  179 1   
   177  175  176 1   
   178  175  177 1   
   179  175  178 1   
   180  181  182 1   
   181  181  183 1   
@<TRIPOS>SUBSTRUCTURE
     1 MOL         1 TEMP              0 ****  ****    0 ROOT
