@<TRIPOS>MOLECULE
MOL
  175   173     1     0     0
SMALL
resp


@<TRIPOS>ATOM
      1 C1          0.6790    4.3000    5.3270 c3        1 MOL     -0.443474
      2 C2         -0.0380    4.1170    3.9730 c         1 MOL      0.731670
      3 O1          0.6050    4.0500    2.9380 o         1 MOL     -0.574238
      4 H1         -0.0610    4.4480    6.1120 hc        1 MOL      0.109889
      5 H2          1.2710    3.4130    5.5480 hc        1 MOL      0.109889
      6 H3          1.3340    5.1710    5.2770 hc        1 MOL      0.109889
      7 N1         -1.3480    4.0340    3.9530 n         1 MOL     -0.651501
      8 C3         -2.1770    3.6530    2.7890 c3        1 MOL      0.149171
      9 C4         -2.4660    4.7190    1.7150 c         1 MOL      0.665495
     10 O2         -3.1900    5.7050    1.9900 o         1 MOL     -0.625191
     11 C5         -3.4390    2.9530    3.2530 c3        1 MOL     -0.382027
     12 C6         -4.1560    2.2980    2.0430 c         1 MOL      0.849964
     13 O3         -5.3630    1.9450    2.2830 o         1 MOL     -0.711576
     14 O4         -3.5720    2.1770    0.9520 o         1 MOL     -0.711576
     15 H4         -1.8570    4.0290    4.8250 hn        1 MOL      0.337636
     16 H5         -1.5540    2.9260    2.2640 h1        1 MOL      0.079851
     17 H6         -4.1080    3.7340    3.6170 hc        1 MOL      0.087231
     18 H7         -3.2890    2.2890    4.0970 hc        1 MOL      0.087231
     19 N2         -2.1360    4.4770    0.4510 n         1 MOL     -0.498912
     20 C7         -2.2690    5.3920   -0.6720 c3        1 MOL      0.101172
     21 C8         -3.2560    4.8580   -1.8270 c         1 MOL      0.528197
     22 O5         -3.3420    5.5690   -2.8380 o         1 MOL     -0.574957
     23 C9         -0.8150    5.5440   -1.2570 c3        1 MOL     -0.212149
     24 H8         -1.8020    3.5330    0.2990 hn        1 MOL      0.280348
     25 H9         -2.5470    6.3910   -0.3290 h1        1 MOL      0.079749
     26 H10        -0.7770    6.2370   -2.0960 hc        1 MOL      0.064123
     27 H11        -0.2180    6.0710   -0.5270 hc        1 MOL      0.064123
     28 H12        -0.4470    4.6130   -1.6880 hc        1 MOL      0.064123
     29 N3         -4.0230    3.7680   -1.7090 n         1 MOL     -0.391984
     30 C10        -4.9440    3.2860   -2.8010 c3        1 MOL     -0.027128
     31 C11        -6.1810    2.4370   -2.2650 c         1 MOL      0.325149
     32 O6         -7.0730    2.0180   -3.0650 o         1 MOL     -0.506118
     33 C12        -4.1930    2.4180   -3.8600 c3        1 MOL      0.003822
     34 C13        -3.3330    1.2960   -3.2410 c         1 MOL      0.727494
     35 O7         -3.6620    0.8420   -2.1480 o         1 MOL     -0.703222
     36 O8         -2.3410    0.9090   -3.8920 o         1 MOL     -0.703222
     37 H13        -3.8190    3.0970   -0.9810 hn        1 MOL      0.231463
     38 H14        -5.4240    4.1710   -3.2080 h1        1 MOL      0.100791
     39 H15        -3.5000    2.9670   -4.4850 hc        1 MOL      0.001318
     40 H16        -4.9310    2.0280   -4.5490 hc        1 MOL      0.001318
     41 N4         -6.1740    2.0410   -0.9650 n         1 MOL     -0.077387
     42 C14        -7.3570    1.2930   -0.5050 c3        1 MOL     -0.380642
     43 C15        -7.3720   -0.0680   -1.1820 c         1 MOL      0.504564
     44 O9         -8.4490   -0.6750   -1.2120 o         1 MOL     -0.600940
     45 H17        -5.4960    2.4710   -0.3640 hn        1 MOL      0.147091
     46 H18        -8.2540    1.7820   -0.8890 h1        1 MOL      0.167228
     47 H19        -7.3160    1.3410    0.5800 h1        1 MOL      0.167228
     48 N5         -6.3110   -0.6160   -1.7700 n         1 MOL     -0.086036
     49 C16        -6.2250   -1.9650   -2.2830 c3        1 MOL     -0.050298
     50 C17        -6.0770   -3.1010   -1.2270 c         1 MOL      0.430800
     51 O10        -5.8260   -4.2400   -1.6120 o         1 MOL     -0.522470
     52 C18        -5.0300   -2.1020   -3.2530 c3        1 MOL     -0.132594
     53 C19        -3.6090   -2.2040   -2.6950 c         1 MOL      0.618543
     54 N6         -2.6910   -2.3910   -3.5930 n         1 MOL     -0.700379
     55 O11        -3.3300   -2.2000   -1.5220 o         1 MOL     -0.540067
     56 H20        -5.3860   -0.2130   -1.7170 hn        1 MOL      0.084598
     57 H21        -7.1540   -2.1620   -2.8100 h1        1 MOL      0.106260
     58 H22        -5.0340   -1.3040   -4.0040 hc        1 MOL      0.041173
     59 H23        -5.2470   -3.0160   -3.8190 hc        1 MOL      0.041173
     60 H24        -2.8770   -2.2490   -4.5710 hn        1 MOL      0.348690
     61 H25        -1.7480   -2.3180   -3.2620 hn        1 MOL      0.348690
     62 N7         -6.2760   -2.9250    0.0590 n         1 MOL     -0.298792
     63 C20        -6.3880   -4.0230    1.0340 c3        1 MOL     -0.117413
     64 C21        -5.0520   -4.2790    1.7090 c         1 MOL      0.577797
     65 O12        -5.0950   -4.9000    2.8020 o         1 MOL     -0.597349
     66 H26        -6.3500   -1.9970    0.4520 hn        1 MOL      0.223739
     67 H27        -6.7130   -4.9640    0.5980 h1        1 MOL      0.106486
     68 H28        -7.0580   -3.7910    1.8610 h1        1 MOL      0.106486
     69 N8         -3.8670   -3.9310    1.1350 n         1 MOL     -0.471683
     70 C22        -2.5890   -4.2850    1.7460 c3        1 MOL      0.018700
     71 C23        -1.5080   -3.1960    1.5990 c         1 MOL      0.615170
     72 O13        -1.6730   -2.2060    0.9590 o         1 MOL     -0.610014
     73 C24        -2.1230   -5.6250    1.2310 c3        1 MOL      0.486926
     74 C25        -2.7030   -6.7900    2.0190 c3        1 MOL     -0.312046
     75 O14        -2.5290   -5.9250   -0.0790 oh        1 MOL     -0.598436
     76 H29        -3.8640   -3.3820    0.2940 hn        1 MOL      0.312956
     77 H30        -2.6990   -4.3990    2.8250 h1        1 MOL      0.070561
     78 H31        -1.0530   -5.7200    1.3740 h1        1 MOL     -0.043560
     79 H32        -2.2970   -5.1300   -0.5700 ho        1 MOL      0.364498
     80 H33        -2.7830   -6.4910    3.0670 hc        1 MOL      0.066764
     81 H34        -3.7050   -6.9840    1.6290 hc        1 MOL      0.066764
     82 H35        -1.9880   -7.6040    1.9750 hc        1 MOL      0.066764
     83 N9         -0.4180   -3.3460    2.4060 n         1 MOL     -0.581140
     84 C26         0.7910   -2.5810    2.2180 c3        1 MOL     -0.015551
     85 C27         1.4630   -2.9980    0.8690 c         1 MOL      0.570636
     86 O15         1.7320   -4.1440    0.5390 o         1 MOL     -0.597443
     87 C28         1.7130   -2.7980    3.4810 c3        1 MOL      0.152447
     88 C29         1.1260   -1.7360    4.4470 c3        1 MOL      0.036289
     89 C30         3.1940   -2.4770    3.2280 c3        1 MOL     -0.453308
     90 C31         1.7990   -1.6990    5.8090 c3        1 MOL     -0.276667
     91 H36        -0.3710   -4.1800    2.9740 hn        1 MOL      0.254400
     92 H37         0.4370   -1.5500    2.2120 h1        1 MOL      0.006069
     93 H38         1.7600   -3.8200    3.8670 hc        1 MOL      0.034577
     94 H39         0.0660   -1.9500    4.5870 hc        1 MOL      0.018965
     95 H40         1.1880   -0.7570    3.9590 hc        1 MOL      0.018965
     96 H41         3.5360   -3.2740    2.5730 hc        1 MOL      0.108968
     97 H42         3.2930   -1.4230    2.9470 hc        1 MOL      0.108968
     98 H43         3.6830   -2.6030    4.2010 hc        1 MOL      0.108968
     99 H44         2.7060   -1.1050    5.7070 hc        1 MOL      0.064965
    100 H45         1.2200   -1.1900    6.5780 hc        1 MOL      0.064965
    101 H46         2.0630   -2.7160    6.1250 hc        1 MOL      0.064965
    102 N10         1.7880   -1.9590    0.1020 n         1 MOL     -0.288201
    103 C32         2.6640   -2.0510   -1.1210 c3        1 MOL      0.025713
    104 C33         4.0670   -1.5950   -0.7550 c         1 MOL      0.513349
    105 O16         4.2820   -0.7340    0.0130 o         1 MOL     -0.455276
    106 C34         1.9100   -1.3210   -2.2160 c3        1 MOL     -0.212747
    107 C35         0.4570   -1.7060   -2.3890 c         1 MOL      0.757592
    108 O17        -0.4470   -1.1080   -1.7320 o         1 MOL     -0.688973
    109 O18         0.2710   -2.5830   -3.2800 o         1 MOL     -0.688973
    110 H47         1.5170   -1.0540    0.4530 hn        1 MOL      0.304812
    111 H48         2.7600   -3.0630   -1.5190 h1        1 MOL      0.076291
    112 H49         2.3630   -1.5070   -3.1870 hc        1 MOL      0.049598
    113 H50         1.8490   -0.2790   -1.8760 hc        1 MOL      0.049598
    114 N11         5.0730   -1.8890   -1.5530 n         1 MOL     -0.661910
    115 C36         6.5040   -1.4160   -1.4710 c3        1 MOL      0.437500
    116 C37         6.7360    0.1270   -1.2300 c         1 MOL      0.310405
    117 O19         7.4660    0.4380   -0.2800 o         1 MOL     -0.479467
    118 C38         7.3640   -1.9970   -2.5570 c3        1 MOL     -0.392234
    119 C39         8.8350   -1.9020   -2.2470 ca        1 MOL      0.187679
    120 C40         9.3490   -2.6230   -1.1600 ca        1 MOL     -0.188118
    121 C41         9.7070   -1.1950   -3.0650 ca        1 MOL     -0.188118
    122 C42        10.7270   -2.6070   -0.8640 ca        1 MOL     -0.125191
    123 C43        11.0500   -1.1020   -2.7370 ca        1 MOL     -0.125191
    124 C44        11.5920   -1.7840   -1.5970 ca        1 MOL     -0.094606
    125 H51         4.9330   -2.3720   -2.4230 hn        1 MOL      0.309561
    126 H52         6.8180   -1.8350   -0.5130 h1        1 MOL      0.056754
    127 H53         7.1460   -1.5050   -3.5090 hc        1 MOL      0.106592
    128 H54         7.1240   -3.0600   -2.5860 hc        1 MOL      0.106592
    129 H55         8.6960   -3.2020   -0.5330 ha        1 MOL      0.121114
    130 H56         9.2450   -0.6500   -3.8820 ha        1 MOL      0.121114
    131 H57        11.0980   -3.2180   -0.0560 ha        1 MOL      0.115800
    132 H58        11.6460   -0.4490   -3.3550 ha        1 MOL      0.115800
    133 H59        12.6540   -1.7260   -1.4120 ha        1 MOL      0.098542
    134 N12         6.1190    1.0540   -1.9430 n         1 MOL     -0.120542
    135 C45         6.2290    2.5120   -1.6190 c3        1 MOL      0.036118
    136 C46         5.8030    2.8470   -0.1620 c         1 MOL      0.219838
    137 O20         6.3040    3.8020    0.5300 o         1 MOL     -0.502216
    138 C47         5.5140    3.2550   -2.7030 c3        1 MOL      0.000173
    139 C48         5.2800    2.2030   -3.8100 c3        1 MOL     -0.192793
    140 C49         5.1030    0.9590   -2.9330 c3        1 MOL      0.004370
    141 H60         7.3080    2.6250   -1.6710 h1        1 MOL      0.071070
    142 H61         4.5140    3.5570   -2.3980 hc        1 MOL      0.041046
    143 H62         6.1020    4.1170   -3.0240 hc        1 MOL      0.041046
    144 H63         4.3240    2.4800   -4.2520 hc        1 MOL      0.074614
    145 H64         6.0140    2.1940   -4.6110 hc        1 MOL      0.074614
    146 H65         4.0780    0.8100   -2.6210 h1        1 MOL      0.045404
    147 H66         5.2880    0.1170   -3.6070 h1        1 MOL      0.045404
    148 N13         4.8460    2.0920    0.3220 n         1 MOL      0.004426
    149 C50         4.1930    2.2830    1.5960 c3        1 MOL     -0.186081
    150 C51         5.0830    1.6870    2.6980 c         1 MOL      0.439130
    151 O21         5.2300    2.1430    3.8230 o         1 MOL     -0.574964
    152 C52         2.7870    1.6770    1.5620 c3        1 MOL      0.006682
    153 C53         1.8250    2.1870    0.4350 c3        1 MOL     -0.178448
    154 C54         0.4100    1.5440    0.4240 c         1 MOL      0.709269
    155 O22         0.2000    0.4500    0.8970 o         1 MOL     -0.722843
    156 O23        -0.4350    2.0300   -0.2850 o         1 MOL     -0.722843
    157 H67         4.5320    1.3060   -0.2410 hn        1 MOL      0.192723
    158 H68         4.1650    3.3410    1.8720 h1        1 MOL      0.136607
    159 H69         2.2960    1.8750    2.5190 hc        1 MOL      0.058481
    160 H70         2.8600    0.5920    1.4800 hc        1 MOL      0.058481
    161 H71         2.3050    2.0330   -0.5350 hc        1 MOL      0.055659
    162 H72         1.7600    3.2690    0.5230 hc        1 MOL      0.055659
    163 N14         5.9340    0.7480    2.3160 n         1 MOL      0.018577
    164 C55         6.8570    0.0420    3.1920 c3        1 MOL     -0.129541
    165 H73         7.7950   -0.1330    2.6650 h1        1 MOL      0.054251
    166 H74         7.0470    0.6440    4.0820 h1        1 MOL      0.054251
    167 H75         6.4210   -0.9120    3.4860 h1        1 MOL      0.054251
    168 H76         5.8440    0.5240    1.3280 hn        1 MOL      0.017080
    169 Ca1        -2.2190    0.0720   -0.2380 Ca        1 MOL      1.703059
    170 O24        -4.5300   -0.5010    1.1170 oh        1 MOL     -0.741009
    171 H77        -5.0170   -1.0730    1.7150 ho        1 MOL      0.362798
    172 H78        -4.7910    0.3840    1.3650 ho        1 MOL      0.362798
    173 O25        -1.8550   -0.0390    2.7930 oh        1 MOL     -0.741009
    174 H79        -1.9510   -0.2620    3.7180 ho        1 MOL      0.362798
    175 H80        -0.9060   -0.0740    2.6380 ho        1 MOL      0.362798
@<TRIPOS>BOND
     1    1    2 1   
     2    1    4 1   
     3    1    5 1   
     4    1    6 1   
     5    2    3 2   
     6    2    7 1   
     7    7    8 1   
     8    7   15 1   
     9    8    9 1   
    10    8   11 1   
    11    8   16 1   
    12    9   10 2   
    13    9   19 1   
    14   11   12 1   
    15   11   17 1   
    16   11   18 1   
    17   12   13 1   
    18   12   14 1   
    19   19   20 1   
    20   19   24 1   
    21   20   21 1   
    22   20   23 1   
    23   20   25 1   
    24   21   22 2   
    25   21   29 1   
    26   23   26 1   
    27   23   27 1   
    28   23   28 1   
    29   29   30 1   
    30   29   37 1   
    31   30   31 1   
    32   30   33 1   
    33   30   38 1   
    34   31   32 2   
    35   31   41 1   
    36   33   34 1   
    37   33   39 1   
    38   33   40 1   
    39   34   35 1   
    40   34   36 1   
    41   41   42 1   
    42   41   45 1   
    43   42   43 1   
    44   42   46 1   
    45   42   47 1   
    46   43   44 2   
    47   43   48 1   
    48   48   49 1   
    49   48   56 1   
    50   49   50 1   
    51   49   52 1   
    52   49   57 1   
    53   50   51 2   
    54   50   62 1   
    55   52   53 1   
    56   52   58 1   
    57   52   59 1   
    58   53   54 1   
    59   53   55 2   
    60   54   60 1   
    61   54   61 1   
    62   62   63 1   
    63   62   66 1   
    64   63   64 1   
    65   63   67 1   
    66   63   68 1   
    67   64   65 2   
    68   64   69 1   
    69   69   70 1   
    70   69   76 1   
    71   70   71 1   
    72   70   73 1   
    73   70   77 1   
    74   71   72 2   
    75   71   83 1   
    76   73   74 1   
    77   73   75 1   
    78   73   78 1   
    79   74   80 1   
    80   74   81 1   
    81   74   82 1   
    82   75   79 1   
    83   83   84 1   
    84   83   91 1   
    85   84   85 1   
    86   84   87 1   
    87   84   92 1   
    88   85   86 2   
    89   85  102 1   
    90   87   88 1   
    91   87   89 1   
    92   87   93 1   
    93   88   90 1   
    94   88   94 1   
    95   88   95 1   
    96   89   96 1   
    97   89   97 1   
    98   89   98 1   
    99   90   99 1   
   100   90  100 1   
   101   90  101 1   
   102  102  103 1   
   103  102  110 1   
   104  103  104 1   
   105  103  106 1   
   106  103  111 1   
   107  104  105 2   
   108  104  114 1   
   109  106  107 1   
   110  106  112 1   
   111  106  113 1   
   112  107  108 1   
   113  107  109 1   
   114  114  115 1   
   115  114  125 1   
   116  115  116 1   
   117  115  118 1   
   118  115  126 1   
   119  116  117 2   
   120  116  134 1   
   121  118  119 1   
   122  118  127 1   
   123  118  128 1   
   124  119  120 ar  
   125  119  121 ar  
   126  120  122 ar  
   127  120  129 1   
   128  121  123 ar  
   129  121  130 1   
   130  122  124 ar  
   131  122  131 1   
   132  123  124 ar  
   133  123  132 1   
   134  124  133 1   
   135  134  135 1   
   136  134  140 1   
   137  135  136 1   
   138  135  138 1   
   139  135  141 1   
   140  136  137 2   
   141  136  148 1   
   142  138  139 1   
   143  138  142 1   
   144  138  143 1   
   145  139  140 1   
   146  139  144 1   
   147  139  145 1   
   148  140  146 1   
   149  140  147 1   
   150  148  149 1   
   151  148  157 1   
   152  149  150 1   
   153  149  152 1   
   154  149  158 1   
   155  150  151 2   
   156  150  163 1   
   157  152  153 1   
   158  152  159 1   
   159  152  160 1   
   160  153  154 1   
   161  153  161 1   
   162  153  162 1   
   163  154  155 1   
   164  154  156 1   
   165  163  164 1   
   166  163  168 1   
   167  164  165 1   
   168  164  166 1   
   169  164  167 1   
   170  170  171 1   
   171  170  172 1   
   172  173  174 1   
   173  173  175 1   
@<TRIPOS>SUBSTRUCTURE
     1 MOL         1 TEMP              0 ****  ****    0 ROOT
