@<TRIPOS>MOLECULE
MOL
  189   185     1     0     0
SMALL
resp


@<TRIPOS>ATOM
      1 C1          0.4520   -3.9300    5.5950 c3        1 MOL     -0.398948
      2 C2          1.1030   -3.3570    4.2970 c         1 MOL      0.770802
      3 O1          1.4840   -2.2200    4.3310 o         1 MOL     -0.610206
      4 H1          0.0310   -4.9140    5.3860 hc        1 MOL      0.097352
      5 H2          1.2080   -4.0170    6.3740 hc        1 MOL      0.097352
      6 H3         -0.3410   -3.2610    5.9300 hc        1 MOL      0.097352
      7 N1          1.4580   -4.2000    3.3400 n         1 MOL     -0.572719
      8 C3          2.2960   -3.8390    2.1920 c3        1 MOL      0.189441
      9 C4          2.3180   -4.9430    1.1720 c         1 MOL      0.521694
     10 O2          2.2750   -6.1470    1.4990 o         1 MOL     -0.596565
     11 C5          3.6770   -3.5390    2.7850 c3        1 MOL     -0.419122
     12 C6          4.5000   -2.7290    1.7470 c         1 MOL      0.704663
     13 O3          5.7070   -2.5290    1.9320 o         1 MOL     -0.678898
     14 O4          3.9830   -2.1830    0.7520 o         1 MOL     -0.678898
     15 H4          1.2830   -5.1940    3.3440 hn        1 MOL      0.286332
     16 H5          1.9340   -2.9380    1.7050 h1        1 MOL      0.126136
     17 H6          4.1400   -4.5160    2.9150 hc        1 MOL      0.123619
     18 H7          3.7320   -3.0560    3.7580 hc        1 MOL      0.123619
     19 N2          2.4790   -4.5990   -0.0870 n         1 MOL     -0.190674
     20 C7          2.9140   -5.5510   -1.1820 c3        1 MOL     -0.273785
     21 C8          4.1400   -5.0030   -1.9330 c         1 MOL      0.485006
     22 O5          4.7130   -5.7610   -2.7110 o         1 MOL     -0.573442
     23 C9          1.7080   -5.9440   -2.0510 c3        1 MOL      0.206752
     24 C10         1.3510   -4.7500   -2.8960 c3        1 MOL      0.177677
     25 C11         0.4230   -6.4040   -1.2130 c3        1 MOL     -0.287970
     26 C12         0.4250   -4.9300   -4.1180 c3        1 MOL     -0.248924
     27 H8          2.3460   -3.6110   -0.2620 hn        1 MOL      0.207852
     28 H9          3.1420   -6.5400   -0.7840 h1        1 MOL      0.143347
     29 H10         1.9860   -6.7510   -2.7390 hc        1 MOL     -0.035042
     30 H11         2.2800   -4.3670   -3.3100 hc        1 MOL      0.004833
     31 H12         0.9460   -4.0310   -2.1770 hc        1 MOL      0.004833
     32 H13         0.1890   -5.6550   -0.4580 hc        1 MOL      0.061907
     33 H14        -0.4100   -6.7160   -1.8410 hc        1 MOL      0.061907
     34 H15         0.7050   -7.3250   -0.7010 hc        1 MOL      0.061907
     35 H16         0.8730   -5.6650   -4.7900 hc        1 MOL      0.043609
     36 H17        -0.4090   -5.4970   -3.6990 hc        1 MOL      0.043609
     37 H18         0.2010   -3.9910   -4.6100 hc        1 MOL      0.043609
     38 N3          4.5550   -3.7580   -1.8290 n         1 MOL     -0.247282
     39 C13         5.5350   -3.1070   -2.6680 c3        1 MOL      0.029348
     40 C14         6.6500   -2.1780   -2.1690 c         1 MOL      0.409280
     41 O6          7.5310   -1.8150   -2.9440 o         1 MOL     -0.549014
     42 C15         4.6550   -2.4610   -3.7590 c3        1 MOL     -0.300026
     43 C16         3.5730   -1.4320   -3.2210 c         1 MOL      0.717842
     44 O7          3.6250   -0.8790   -2.1040 o         1 MOL     -0.703537
     45 O8          2.6060   -1.0670   -3.9780 o         1 MOL     -0.703537
     46 H19         4.0550   -3.1130   -1.2380 hn        1 MOL      0.187322
     47 H20         6.0640   -3.9440   -3.1350 h1        1 MOL      0.090952
     48 H21         4.1300   -3.2600   -4.2830 hc        1 MOL      0.082522
     49 H22         5.3040   -1.8640   -4.4010 hc        1 MOL      0.082522
     50 N4          6.6370   -1.7080   -0.9010 n         1 MOL     -0.163953
     51 C17         7.6250   -0.8050   -0.3410 c3        1 MOL     -0.112998
     52 C18         7.6330    0.7010   -0.8130 c         1 MOL      0.373232
     53 O9          8.6490    1.4000   -0.6330 o         1 MOL     -0.600514
     54 H23         5.8860   -2.0720   -0.3130 hn        1 MOL      0.126299
     55 H24         8.6460   -1.1590   -0.4710 h1        1 MOL      0.081308
     56 H25         7.3870   -0.8060    0.7300 h1        1 MOL      0.081308
     57 N5          6.6470    1.1480   -1.4900 n         1 MOL     -0.012715
     58 C19         6.6360    2.4700   -2.0960 c3        1 MOL      0.003089
     59 C20         6.7900    3.6670   -1.0350 c         1 MOL      0.441221
     60 O10         7.1300    4.8200   -1.2170 o         1 MOL     -0.548527
     61 C21         5.3360    2.6820   -2.9170 c3        1 MOL     -0.454783
     62 C22         3.9890    2.4910   -2.1240 c         1 MOL      0.893955
     63 O11         4.0270    2.1160   -0.9070 o         1 MOL     -0.729772
     64 O12         2.9140    2.8910   -2.6000 o         1 MOL     -0.729772
     65 H26         5.9110    0.4950   -1.7010 hn        1 MOL      0.182036
     66 H27         7.5310    2.5190   -2.7090 h1        1 MOL      0.082166
     67 H28         5.3200    1.9930   -3.7530 hc        1 MOL      0.124943
     68 H29         5.2630    3.7160   -3.2440 hc        1 MOL      0.124943
     69 N6          6.4500    3.4360    0.2610 n         1 MOL     -0.206046
     70 C23         6.3730    4.4940    1.2410 c3        1 MOL     -0.119286
     71 C24         5.0490    5.0670    1.6170 c         1 MOL      0.479353
     72 O13         4.9580    6.0300    2.4010 o         1 MOL     -0.612470
     73 H30         6.2440    2.4640    0.4500 hn        1 MOL      0.200087
     74 H31         7.0050    5.3270    0.9380 h1        1 MOL      0.082585
     75 H32         6.8230    4.0950    2.1570 h1        1 MOL      0.082585
     76 N7          3.9730    4.4960    1.1280 n         1 MOL     -0.198445
     77 C25         2.5960    4.7610    1.4920 c3        1 MOL     -0.021209
     78 C26         1.8610    3.4270    1.8370 c         1 MOL      0.401731
     79 O14         2.3870    2.4350    1.3860 o         1 MOL     -0.404568
     80 C27         1.9190    5.4730    0.3510 c3        1 MOL     -0.001206
     81 C28         2.6500    6.8110    0.0220 c3        1 MOL     -0.211871
     82 C29         1.8640    7.7550   -0.8500 c         1 MOL      0.602886
     83 N8          2.0180    7.5760   -2.1230 n         1 MOL     -0.764953
     84 O15         1.0960    8.5850   -0.4120 o         1 MOL     -0.589236
     85 H33         4.1110    3.6960    0.5240 hn        1 MOL      0.182164
     86 H34         2.5640    5.4190    2.3580 h1        1 MOL      0.069966
     87 H35         0.9030    5.6850    0.6750 hc        1 MOL      0.051111
     88 H36         1.8960    4.8280   -0.5270 hc        1 MOL      0.051111
     89 H37         3.5570    6.5780   -0.5400 hc        1 MOL      0.096526
     90 H38         2.8740    7.3150    0.9640 hc        1 MOL      0.096526
     91 H39         2.5880    6.8710   -2.5630 hn        1 MOL      0.354948
     92 H40         1.3480    8.1150   -2.6450 hn        1 MOL      0.354948
     93 N9          0.6230    3.4920    2.3980 n         1 MOL     -0.509971
     94 C30        -0.3350    2.3750    2.4770 c3        1 MOL      0.057681
     95 C31        -1.5250    2.7510    1.5450 c         1 MOL      0.507144
     96 O16        -2.0440    3.8550    1.5640 o         1 MOL     -0.569765
     97 C32        -0.8110    2.0530    3.9230 c3        1 MOL      0.357590
     98 C33        -1.6520    3.1080    4.6480 c3        1 MOL     -0.355769
     99 C34        -1.4070    0.7060    4.1560 c3        1 MOL     -0.355769
    100 H41         0.2120    4.4070    2.5020 hn        1 MOL      0.297514
    101 H42         0.1380    1.4170    2.2330 h1        1 MOL      0.113641
    102 H43         0.1390    2.1060    4.4440 hc        1 MOL     -0.044053
    103 H44        -2.6630    3.1570    4.2590 hc        1 MOL      0.070040
    104 H45        -1.8590    2.8070    5.6740 hc        1 MOL      0.070040
    105 H46        -1.0420    4.0040    4.7500 hc        1 MOL      0.070040
    106 H47        -0.7030   -0.1150    4.1010 hc        1 MOL      0.070040
    107 H48        -1.8910    0.6760    5.1350 hc        1 MOL      0.070040
    108 H49        -2.1830    0.5190    3.4040 hc        1 MOL      0.070040
    109 N10        -2.0160    1.7030    0.8530 n         1 MOL     -0.422595
    110 C35        -3.1790    1.7850   -0.1100 c3        1 MOL      0.134623
    111 C36        -4.4910    1.1550    0.5180 c         1 MOL      0.373429
    112 O17        -4.4460    0.4810    1.5460 o         1 MOL     -0.361273
    113 C37        -2.7930    1.0670   -1.4790 c3        1 MOL     -0.087474
    114 C38        -3.9280    1.1960   -2.5190 c         1 MOL      0.548846
    115 N11        -4.2370    2.3510   -2.9940 n         1 MOL     -0.665399
    116 O18        -4.6860    0.2790   -2.7370 o         1 MOL     -0.453662
    117 H50        -1.5690    0.8050    0.9390 hn        1 MOL      0.281325
    118 H51        -3.4240    2.8320   -0.2870 h1        1 MOL      0.045354
    119 H52        -2.6400    0.0090   -1.2560 hc        1 MOL      0.048781
    120 H53        -1.9320    1.4950   -1.9800 hc        1 MOL      0.048781
    121 H54        -3.7300    3.1610   -2.6790 hn        1 MOL      0.316895
    122 H55        -5.1430    2.4640   -3.4180 hn        1 MOL      0.316895
    123 N12        -5.6420    1.3800   -0.0710 n         1 MOL     -0.232702
    124 C39        -6.9190    0.6820    0.2320 c3        1 MOL     -0.086913
    125 C40        -6.8200   -0.8310    0.3810 c         1 MOL      0.605340
    126 O19        -7.0920   -1.2790    1.4670 o         1 MOL     -0.575775
    127 C41        -7.9680    0.9090   -0.8790 c3        1 MOL     -0.025616
    128 C42        -8.5470    2.3050   -0.9630 ca        1 MOL      0.052145
    129 C43        -9.8630    2.5580   -0.5360 ca        1 MOL     -0.145908
    130 C44        -7.8340    3.1920   -1.8470 ca        1 MOL     -0.145908
    131 C45       -10.4940    3.7520   -1.0070 ca        1 MOL     -0.270702
    132 C46        -8.4720    4.3610   -2.2730 ca        1 MOL     -0.270702
    133 C47        -9.7800    4.6090   -1.8870 ca        1 MOL      0.345596
    134 O20       -10.4120    5.7580   -2.2670 oh        1 MOL     -0.524293
    135 H56        -5.6210    2.0160   -0.8510 hn        1 MOL      0.087888
    136 H57        -7.2730    1.1050    1.1720 h1        1 MOL      0.074589
    137 H58        -8.7480    0.1810   -0.6790 hc        1 MOL      0.062462
    138 H59        -7.5280    0.7290   -1.8650 hc        1 MOL      0.062462
    139 H60       -10.3610    1.8970    0.1640 ha        1 MOL      0.154459
    140 H61        -6.8530    2.8630   -2.1640 ha        1 MOL      0.154459
    141 H62       -11.5060    3.9770   -0.6860 ha        1 MOL      0.141229
    142 H63        -7.9520    5.0860   -2.8840 ha        1 MOL      0.141229
    143 H64        -9.9460    6.2990   -2.9150 ho        1 MOL      0.369113
    144 N13        -6.2280   -1.4510   -0.6540 n         1 MOL     -0.337584
    145 C48        -6.0330   -2.9430   -0.6530 c3        1 MOL     -0.091151
    146 C49        -5.0680   -3.4990    0.4460 c         1 MOL      0.336290
    147 O21        -4.9530   -4.7210    0.5840 o         1 MOL     -0.507015
    148 C50        -5.5150   -3.4100   -2.0410 c3        1 MOL     -0.020045
    149 C51        -6.3710   -2.9680   -3.3180 c3        1 MOL     -0.023177
    150 C52        -7.8480   -3.0060   -3.1170 c         1 MOL      0.681281
    151 O22        -8.5050   -2.0930   -3.6900 o         1 MOL     -0.743578
    152 O23        -8.3380   -3.9000   -2.4400 o         1 MOL     -0.743578
    153 H65        -6.0430   -0.8790   -1.4730 hn        1 MOL      0.170998
    154 H66        -6.9950   -3.3710   -0.3880 h1        1 MOL      0.181027
    155 H67        -5.6010   -4.4890   -2.0740 hc        1 MOL      0.031932
    156 H68        -4.4850   -3.1480   -2.3000 hc        1 MOL      0.031932
    157 H69        -6.0660   -3.5810   -4.1670 hc        1 MOL     -0.026042
    158 H70        -6.0270   -2.0080   -3.7270 hc        1 MOL     -0.026042
    159 N14        -4.3400   -2.5560    1.0920 n         1 MOL     -0.014716
    160 C53        -3.3880   -2.8070    2.1450 c3        1 MOL      0.059016
    161 C54        -3.9840   -2.4740    3.5660 c         1 MOL      0.297172
    162 O24        -4.1040   -3.3100    4.5050 o         1 MOL     -0.546745
    163 C55        -2.0950   -1.9820    1.9010 c3        1 MOL     -0.037673
    164 C56        -1.2930   -2.5330    0.6610 c3        1 MOL     -0.169924
    165 C57        -0.1330   -1.5930    0.2840 c         1 MOL      0.902750
    166 O25         0.9390   -2.0130   -0.2300 o         1 MOL     -0.799609
    167 O26        -0.0950   -0.3830    0.6620 o         1 MOL     -0.799609
    168 H71        -4.4710   -1.5820    0.8730 hn        1 MOL      0.067714
    169 H72        -3.0700   -3.8490    2.2250 h1        1 MOL      0.049630
    170 H73        -1.3650   -2.0270    2.7040 hc        1 MOL      0.003934
    171 H74        -2.3770   -0.9390    1.7230 hc        1 MOL      0.003934
    172 H75        -1.8700   -2.7250   -0.2360 hc        1 MOL      0.021001
    173 H76        -0.8150   -3.4350    1.0570 hc        1 MOL      0.021001
    174 N15        -4.4890   -1.2230    3.7190 n         1 MOL      0.052933
    175 C58        -5.1190   -0.6260    4.9100 c3        1 MOL     -0.231383
    176 H77        -4.9090    0.4430    4.9340 h1        1 MOL      0.081349
    177 H78        -6.1960   -0.7830    4.8680 h1        1 MOL      0.081349
    178 H79        -4.7170   -1.0950    5.8080 h1        1 MOL      0.081349
    179 H80        -4.5260   -0.7080    2.8490 hn        1 MOL      0.059612
    180 Ca1         2.6880    0.0580    0.1730 Ca        1 MOL      1.760924
    181 O27         2.3720   -0.1470    2.7870 oh        1 MOL     -0.965805
    182 H81         1.9720   -0.9250    3.1760 ho        1 MOL      0.444598
    183 H82         2.6180    0.4040    3.5310 ho        1 MOL      0.444598
    184 O28         0.9820    1.5060   -1.5930 oh        1 MOL     -0.965805
    185 H83         1.6120    2.0570   -2.0610 ho        1 MOL      0.444598
    186 H84         0.1670    1.6180   -2.0820 ho        1 MOL      0.444598
    187 O29         5.2370    0.2570    1.5230 oh        1 MOL     -0.965805
    188 H85         5.8090    0.7120    2.1390 ho        1 MOL      0.444598
    189 H86         5.3920   -0.6710    1.6880 ho        1 MOL      0.444598
@<TRIPOS>BOND
     1    1    2 1   
     2    1    4 1   
     3    1    5 1   
     4    1    6 1   
     5    2    3 2   
     6    2    7 1   
     7    7    8 1   
     8    7   15 1   
     9    8    9 1   
    10    8   11 1   
    11    8   16 1   
    12    9   10 2   
    13    9   19 1   
    14   11   12 1   
    15   11   17 1   
    16   11   18 1   
    17   12   13 1   
    18   12   14 1   
    19   19   20 1   
    20   19   27 1   
    21   20   21 1   
    22   20   23 1   
    23   20   28 1   
    24   21   22 2   
    25   21   38 1   
    26   23   24 1   
    27   23   25 1   
    28   23   29 1   
    29   24   26 1   
    30   24   30 1   
    31   24   31 1   
    32   25   32 1   
    33   25   33 1   
    34   25   34 1   
    35   26   35 1   
    36   26   36 1   
    37   26   37 1   
    38   38   39 1   
    39   38   46 1   
    40   39   40 1   
    41   39   42 1   
    42   39   47 1   
    43   40   41 2   
    44   40   50 1   
    45   42   43 1   
    46   42   48 1   
    47   42   49 1   
    48   43   44 1   
    49   43   45 1   
    50   50   51 1   
    51   50   54 1   
    52   51   52 1   
    53   51   55 1   
    54   51   56 1   
    55   52   53 2   
    56   52   57 1   
    57   57   58 1   
    58   57   65 1   
    59   58   59 1   
    60   58   61 1   
    61   58   66 1   
    62   59   60 2   
    63   59   69 1   
    64   61   62 1   
    65   61   67 1   
    66   61   68 1   
    67   62   63 1   
    68   62   64 1   
    69   69   70 1   
    70   69   73 1   
    71   70   71 1   
    72   70   74 1   
    73   70   75 1   
    74   71   72 2   
    75   71   76 1   
    76   76   77 1   
    77   76   85 1   
    78   77   78 1   
    79   77   80 1   
    80   77   86 1   
    81   78   79 2   
    82   78   93 1   
    83   80   81 1   
    84   80   87 1   
    85   80   88 1   
    86   81   82 1   
    87   81   89 1   
    88   81   90 1   
    89   82   83 1   
    90   82   84 2   
    91   83   91 1   
    92   83   92 1   
    93   93   94 1   
    94   93  100 1   
    95   94   95 1   
    96   94   97 1   
    97   94  101 1   
    98   95   96 2   
    99   95  109 1   
   100   97   98 1   
   101   97   99 1   
   102   97  102 1   
   103   98  103 1   
   104   98  104 1   
   105   98  105 1   
   106   99  106 1   
   107   99  107 1   
   108   99  108 1   
   109  109  110 1   
   110  109  117 1   
   111  110  111 1   
   112  110  113 1   
   113  110  118 1   
   114  111  112 2   
   115  111  123 1   
   116  113  114 1   
   117  113  119 1   
   118  113  120 1   
   119  114  115 1   
   120  114  116 2   
   121  115  121 1   
   122  115  122 1   
   123  123  124 1   
   124  123  135 1   
   125  124  125 1   
   126  124  127 1   
   127  124  136 1   
   128  125  126 2   
   129  125  144 1   
   130  127  128 1   
   131  127  137 1   
   132  127  138 1   
   133  128  129 ar  
   134  128  130 ar  
   135  129  131 ar  
   136  129  139 1   
   137  130  132 ar  
   138  130  140 1   
   139  131  133 ar  
   140  131  141 1   
   141  132  133 ar  
   142  132  142 1   
   143  133  134 1   
   144  134  143 1   
   145  144  145 1   
   146  144  153 1   
   147  145  146 1   
   148  145  148 1   
   149  145  154 1   
   150  146  147 2   
   151  146  159 1   
   152  148  149 1   
   153  148  155 1   
   154  148  156 1   
   155  149  150 1   
   156  149  157 1   
   157  149  158 1   
   158  150  151 1   
   159  150  152 1   
   160  159  160 1   
   161  159  168 1   
   162  160  161 1   
   163  160  163 1   
   164  160  169 1   
   165  161  162 2   
   166  161  174 1   
   167  163  164 1   
   168  163  170 1   
   169  163  171 1   
   170  164  165 1   
   171  164  172 1   
   172  164  173 1   
   173  165  166 1   
   174  165  167 1   
   175  174  175 1   
   176  174  179 1   
   177  175  176 1   
   178  175  177 1   
   179  175  178 1   
   180  181  182 1   
   181  181  183 1   
   182  184  185 1   
   183  184  186 1   
   184  187  188 1   
   185  187  189 1   
@<TRIPOS>SUBSTRUCTURE
     1 MOL         1 TEMP              0 ****  ****    0 ROOT
