@<TRIPOS>MOLECULE
MOL
  175   173     1     0     0
SMALL
resp


@<TRIPOS>ATOM
      1 C1         -0.0210    3.2160    5.4420 c3        1 MOL     -0.412987
      2 C2         -0.5470    3.0260    4.0430 c         1 MOL      0.625648
      3 O1         -0.0110    3.6040    3.0630 o         1 MOL     -0.573567
      4 H1          0.4640    4.1900    5.5180 hc        1 MOL      0.107357
      5 H2         -0.8460    3.1650    6.1510 hc        1 MOL      0.107357
      6 H3          0.7020    2.4330    5.6690 hc        1 MOL      0.107357
      7 N1         -1.6390    2.3020    3.8270 n         1 MOL     -0.375436
      8 C3         -2.2960    1.9760    2.5640 c3        1 MOL     -0.010204
      9 C4         -2.8950    3.2940    1.9250 c         1 MOL      0.379621
     10 O2         -4.0220    3.7020    2.2970 o         1 MOL     -0.529867
     11 C5         -3.3960    1.0020    2.8850 c3        1 MOL      0.015416
     12 C6         -4.0060    0.3100    1.6500 c         1 MOL      0.686056
     13 O3         -3.5440    0.4260    0.5220 o         1 MOL     -0.751528
     14 O4         -4.8860   -0.5560    1.9150 o         1 MOL     -0.751528
     15 H4         -1.9950    1.7960    4.6250 hn        1 MOL      0.249453
     16 H5         -1.6120    1.4460    1.9000 h1        1 MOL      0.052843
     17 H6         -4.1030    1.4310    3.5930 hc        1 MOL      0.010299
     18 H7         -2.9460    0.2460    3.5260 hc        1 MOL      0.010299
     19 N2         -2.2680    4.0130    0.9850 n         1 MOL     -0.232255
     20 C7         -2.5100    5.4260    0.5470 c3        1 MOL      0.195033
     21 C8         -3.7040    5.3930   -0.3580 c         1 MOL      0.360468
     22 O5         -4.4860    6.3490   -0.3200 o         1 MOL     -0.593286
     23 C9         -1.2760    6.0360   -0.1380 c3        1 MOL     -0.421205
     24 H8         -1.4500    3.6260    0.5360 hn        1 MOL      0.249329
     25 H9         -2.7550    6.0020    1.4340 h1        1 MOL      0.059103
     26 H10        -1.4090    7.0920   -0.3530 hc        1 MOL      0.117619
     27 H11        -0.4470    6.0140    0.5660 hc        1 MOL      0.117619
     28 H12        -0.9650    5.4240   -0.9920 hc        1 MOL      0.117619
     29 N3         -4.0200    4.3180   -1.0380 n         1 MOL     -0.113407
     30 C10        -5.1360    4.0560   -1.9390 c3        1 MOL     -0.031744
     31 C11        -6.2690    3.1750   -1.3240 c         1 MOL      0.501843
     32 O6         -7.2170    2.8060   -1.9910 o         1 MOL     -0.559587
     33 C12        -4.6830    3.5890   -3.2830 c3        1 MOL     -0.153873
     34 C13        -3.4260    2.7260   -3.2640 c         1 MOL      0.724622
     35 O7         -3.0980    2.0290   -2.2780 o         1 MOL     -0.713541
     36 O8         -2.6720    2.7320   -4.2620 o         1 MOL     -0.713541
     37 H13        -3.3600    3.5480   -1.0640 hn        1 MOL      0.181197
     38 H14        -5.5690    5.0500   -2.0100 h1        1 MOL      0.085861
     39 H15        -4.4440    4.4110   -3.9600 hc        1 MOL      0.039699
     40 H16        -5.4460    3.1060   -3.8890 hc        1 MOL      0.039699
     41 N4         -6.2090    2.8250   -0.0300 n         1 MOL     -0.316174
     42 C14        -7.1520    2.0310    0.6640 c3        1 MOL      0.003864
     43 C15        -7.4160    0.6330    0.0610 c         1 MOL      0.449285
     44 O9         -8.4440    0.0700    0.4010 o         1 MOL     -0.595748
     45 H17        -5.2780    2.8870    0.3600 hn        1 MOL      0.154475
     46 H18        -8.1190    2.5190    0.7270 h1        1 MOL      0.072451
     47 H19        -6.8940    1.9300    1.7130 h1        1 MOL      0.072451
     48 N5         -6.4930   -0.0580   -0.6580 n         1 MOL     -0.041799
     49 C16        -6.9560   -1.2480   -1.3420 c3        1 MOL     -0.253601
     50 C17        -6.9480   -2.5870   -0.5970 c         1 MOL      0.515717
     51 O10        -7.3310   -3.5760   -1.2000 o         1 MOL     -0.582554
     52 C18        -6.1870   -1.2990   -2.6540 c3        1 MOL     -0.078704
     53 C19        -4.8170   -2.1000   -2.5560 c         1 MOL      0.488745
     54 N6         -4.6570   -3.2880   -3.0670 n         1 MOL     -0.701190
     55 O11        -3.8620   -1.5450   -2.0120 o         1 MOL     -0.489375
     56 H20        -5.5700    0.3030   -0.8240 hn        1 MOL      0.141024
     57 H21        -7.9790   -1.1570   -1.7030 h1        1 MOL      0.159874
     58 H22        -6.0080   -0.3170   -3.0840 hc        1 MOL      0.054842
     59 H23        -6.7520   -1.8130   -3.4220 hc        1 MOL      0.054842
     60 H24        -5.4350   -3.7290   -3.5310 hn        1 MOL      0.356236
     61 H25        -3.8560   -3.7970   -2.7080 hn        1 MOL      0.356236
     62 N7         -6.4970   -2.5810    0.6410 n         1 MOL     -0.187344
     63 C20        -6.3960   -3.7500    1.5550 c3        1 MOL     -0.344134
     64 C21        -5.0100   -4.3580    1.7190 c         1 MOL      0.654636
     65 O12        -4.9290   -5.2230    2.5830 o         1 MOL     -0.600923
     66 H26        -6.1290   -1.6980    0.9550 hn        1 MOL      0.286717
     67 H27        -7.1520   -4.5020    1.3330 h1        1 MOL      0.141834
     68 H28        -6.5540   -3.3480    2.5550 h1        1 MOL      0.141834
     69 N8         -3.9960   -3.8300    1.0100 n         1 MOL     -0.199318
     70 C22        -2.6360   -4.3770    1.0150 c3        1 MOL     -0.258591
     71 C23        -1.6160   -3.2550    1.0040 c         1 MOL      0.536870
     72 O13        -1.8600   -2.1110    0.5990 o         1 MOL     -0.452776
     73 C24        -2.3550   -5.3450   -0.1440 c3        1 MOL      0.399949
     74 C25        -3.1850   -6.6020   -0.0220 c3        1 MOL     -0.281997
     75 O14        -2.6100   -4.8440   -1.4190 oh        1 MOL     -0.612944
     76 H29        -4.1980   -2.9820    0.4920 hn        1 MOL      0.176381
     77 H30        -2.4890   -4.8930    1.9690 h1        1 MOL      0.115382
     78 H31        -1.2900   -5.5470   -0.0890 h1        1 MOL     -0.011918
     79 H32        -2.1450   -4.0100   -1.4470 ho        1 MOL      0.396230
     80 H33        -3.0620   -7.0100    0.9840 hc        1 MOL      0.068392
     81 H34        -4.2540   -6.4090   -0.1580 hc        1 MOL      0.068392
     82 H35        -2.7630   -7.3710   -0.6660 hc        1 MOL      0.068392
     83 N9         -0.4130   -3.6300    1.4380 n         1 MOL     -0.472700
     84 C26         0.7560   -2.8060    1.4830 c3        1 MOL     -0.068825
     85 C27         1.7560   -3.0770    0.3890 c         1 MOL      0.587075
     86 O15         2.2150   -4.2000    0.1370 o         1 MOL     -0.611013
     87 C28         1.4430   -2.9170    2.9180 c3        1 MOL      0.342319
     88 C29         0.5640   -2.7980    4.2310 c3        1 MOL     -0.104645
     89 C30         2.3910   -1.7840    3.1150 c3        1 MOL     -0.432566
     90 C31         1.2290   -2.8740    5.6270 c3        1 MOL     -0.161970
     91 H36        -0.3480   -4.5900    1.7610 hn        1 MOL      0.281187
     92 H37         0.4120   -1.7960    1.2810 h1        1 MOL      0.059364
     93 H38         1.9370   -3.8900    2.9220 hc        1 MOL     -0.055486
     94 H39        -0.1320   -3.6260    4.1130 hc        1 MOL      0.031667
     95 H40         0.0640   -1.8290    4.2580 hc        1 MOL      0.031667
     96 H41         3.0770   -1.8290    2.2760 hc        1 MOL      0.084596
     97 H42         1.8260   -0.8450    3.1200 hc        1 MOL      0.084596
     98 H43         2.9530   -1.9660    4.0310 hc        1 MOL      0.084596
     99 H44         1.9100   -2.0450    5.8070 hc        1 MOL      0.043865
    100 H45         0.4290   -2.8910    6.3690 hc        1 MOL      0.043865
    101 H46         1.8750   -3.7510    5.6040 hc        1 MOL      0.043865
    102 N10         2.1700   -1.9840   -0.2590 n         1 MOL     -0.239026
    103 C32         3.2510   -1.7960   -1.3360 c3        1 MOL      0.093942
    104 C33         4.6040   -1.4420   -0.7030 c         1 MOL      0.315604
    105 O16         4.5940   -0.8500    0.3500 o         1 MOL     -0.264198
    106 C34         2.8280   -0.8430   -2.3640 c3        1 MOL     -0.514305
    107 C35         1.3690   -1.1760   -2.8640 c         1 MOL      0.835067
    108 O17         1.2110   -2.2090   -3.5420 o         1 MOL     -0.697244
    109 O18         0.4130   -0.3870   -2.7050 o         1 MOL     -0.697244
    110 H47         1.6790   -1.1430   -0.0110 hn        1 MOL      0.151696
    111 H48         3.3430   -2.7990   -1.7500 h1        1 MOL      0.056563
    112 H49         3.5330   -0.9010   -3.1850 hc        1 MOL      0.138561
    113 H50         2.8090    0.1850   -1.9880 hc        1 MOL      0.138561
    114 N11         5.7370   -1.8000   -1.3980 n         1 MOL     -0.437494
    115 C36         7.0060   -1.3480   -0.8880 c3        1 MOL      0.218730
    116 C37         7.1260    0.2020   -0.5020 c         1 MOL      0.463791
    117 O19         7.5650    0.4070    0.5950 o         1 MOL     -0.529070
    118 C38         8.0000   -1.7700   -1.8900 c3        1 MOL     -0.139982
    119 C39         9.4350   -1.4390   -1.6180 ca        1 MOL      0.055609
    120 C40        10.1680   -0.6580   -2.5500 ca        1 MOL     -0.138891
    121 C41        10.0340   -1.9370   -0.4420 ca        1 MOL     -0.138891
    122 C42        11.5040   -0.3390   -2.3080 ca        1 MOL     -0.151657
    123 C43        11.3880   -1.5740   -0.2520 ca        1 MOL     -0.151657
    124 C44        12.0730   -0.7290   -1.1300 ca        1 MOL     -0.035399
    125 H51         5.7060   -2.4700   -2.1540 hn        1 MOL      0.299406
    126 H52         7.2340   -1.9870   -0.0330 h1        1 MOL      0.047293
    127 H53         7.8170   -1.2180   -2.8200 hc        1 MOL      0.034712
    128 H54         7.8990   -2.8480   -1.9700 hc        1 MOL      0.034712
    129 H55         9.7120   -0.3030   -3.4690 ha        1 MOL      0.125653
    130 H56         9.5500   -2.6530    0.2110 ha        1 MOL      0.125653
    131 H57        12.0550    0.2990   -2.9880 ha        1 MOL      0.113387
    132 H58        11.8650   -1.9840    0.6240 ha        1 MOL      0.113387
    133 H59        13.1410   -0.6450   -1.0070 ha        1 MOL      0.072058
    134 N12         6.7920    1.1770   -1.3390 n         1 MOL     -0.162808
    135 C45         6.7250    2.5790   -0.8800 c3        1 MOL     -0.028744
    136 C46         5.7620    2.8090    0.2710 c         1 MOL      0.383136
    137 O20         5.9090    3.9000    0.7990 o         1 MOL     -0.537915
    138 C47         6.2240    3.4140   -2.1100 c3        1 MOL     -0.122372
    139 C48         5.5340    2.3780   -2.9610 c3        1 MOL      0.057465
    140 C49         6.4790    1.1580   -2.7930 c3        1 MOL     -0.019539
    141 H60         7.7090    2.9250   -0.5690 h1        1 MOL      0.096795
    142 H61         5.5270    4.2010   -1.8480 hc        1 MOL      0.063908
    143 H62         7.0720    3.8760   -2.6090 hc        1 MOL      0.063908
    144 H63         4.5820    2.0150   -2.5710 hc        1 MOL      0.013501
    145 H64         5.4740    2.6950   -4.0030 hc        1 MOL      0.013501
    146 H65         5.9830    0.2980   -3.2540 h1        1 MOL      0.019918
    147 H66         7.3670    1.3770   -3.3850 h1        1 MOL      0.019918
    148 N13         4.8150    1.9500    0.6640 n         1 MOL     -0.105912
    149 C50         3.9400    2.0770    1.8460 c3        1 MOL      0.027880
    150 C51         4.6080    1.4090    3.1060 c         1 MOL      0.366111
    151 O21         4.6920    2.1160    4.0970 o         1 MOL     -0.535736
    152 C52         2.5980    1.4900    1.5960 c3        1 MOL     -0.223552
    153 C53         1.9070    2.1420    0.4600 c3        1 MOL     -0.101001
    154 C54         0.5790    1.4810    0.0180 c         1 MOL      0.684171
    155 O22        -0.3060    2.1270   -0.5940 o         1 MOL     -0.719166
    156 O23         0.4050    0.2370    0.1580 o         1 MOL     -0.719166
    157 H67         4.7290    1.0520    0.2080 hn        1 MOL      0.189442
    158 H68         3.7860    3.1240    2.1050 h1        1 MOL      0.092611
    159 H69         1.8600    1.6110    2.3910 hc        1 MOL      0.130840
    160 H70         2.6190    0.4230    1.3610 hc        1 MOL      0.130840
    161 H71         2.4800    2.3350   -0.4500 hc        1 MOL      0.024764
    162 H72         1.4980    3.0950    0.8190 hc        1 MOL      0.024764
    163 N14         5.3110    0.3020    2.8970 n         1 MOL      0.033858
    164 C55         6.2360   -0.2840    3.8260 c3        1 MOL     -0.270652
    165 H73         6.9100    0.4860    4.2000 h1        1 MOL      0.089770
    166 H74         5.6870   -0.7220    4.6600 h1        1 MOL      0.089770
    167 H75         6.8150   -1.0600    3.3240 h1        1 MOL      0.089770
    168 H76         5.3010   -0.0830    1.9650 hn        1 MOL     -0.001674
    169 Ca1        -1.7440   -0.1720   -1.3220 Ca        1 MOL      1.725389
    170 O24        -1.9360    0.0890   -4.0390 oh        1 MOL     -0.877725
    171 H77        -1.1950    0.1710   -4.6350 ho        1 MOL      0.407762
    172 H78        -2.4220    0.9050   -4.1540 ho        1 MOL      0.407762
    173 O25        -1.2500   -2.7450   -2.5220 oh        1 MOL     -0.877725
    174 H79        -1.6280   -3.1020   -3.3320 ho        1 MOL      0.407762
    175 H80        -0.3360   -2.5640   -2.7450 ho        1 MOL      0.407762
@<TRIPOS>BOND
     1    1    2 1   
     2    1    4 1   
     3    1    5 1   
     4    1    6 1   
     5    2    3 2   
     6    2    7 1   
     7    7    8 1   
     8    7   15 1   
     9    8    9 1   
    10    8   11 1   
    11    8   16 1   
    12    9   10 2   
    13    9   19 1   
    14   11   12 1   
    15   11   17 1   
    16   11   18 1   
    17   12   13 1   
    18   12   14 1   
    19   19   20 1   
    20   19   24 1   
    21   20   21 1   
    22   20   23 1   
    23   20   25 1   
    24   21   22 2   
    25   21   29 1   
    26   23   26 1   
    27   23   27 1   
    28   23   28 1   
    29   29   30 1   
    30   29   37 1   
    31   30   31 1   
    32   30   33 1   
    33   30   38 1   
    34   31   32 2   
    35   31   41 1   
    36   33   34 1   
    37   33   39 1   
    38   33   40 1   
    39   34   35 1   
    40   34   36 1   
    41   41   42 1   
    42   41   45 1   
    43   42   43 1   
    44   42   46 1   
    45   42   47 1   
    46   43   44 2   
    47   43   48 1   
    48   48   49 1   
    49   48   56 1   
    50   49   50 1   
    51   49   52 1   
    52   49   57 1   
    53   50   51 2   
    54   50   62 1   
    55   52   53 1   
    56   52   58 1   
    57   52   59 1   
    58   53   54 1   
    59   53   55 2   
    60   54   60 1   
    61   54   61 1   
    62   62   63 1   
    63   62   66 1   
    64   63   64 1   
    65   63   67 1   
    66   63   68 1   
    67   64   65 2   
    68   64   69 1   
    69   69   70 1   
    70   69   76 1   
    71   70   71 1   
    72   70   73 1   
    73   70   77 1   
    74   71   72 2   
    75   71   83 1   
    76   73   74 1   
    77   73   75 1   
    78   73   78 1   
    79   74   80 1   
    80   74   81 1   
    81   74   82 1   
    82   75   79 1   
    83   83   84 1   
    84   83   91 1   
    85   84   85 1   
    86   84   87 1   
    87   84   92 1   
    88   85   86 2   
    89   85  102 1   
    90   87   88 1   
    91   87   89 1   
    92   87   93 1   
    93   88   90 1   
    94   88   94 1   
    95   88   95 1   
    96   89   96 1   
    97   89   97 1   
    98   89   98 1   
    99   90   99 1   
   100   90  100 1   
   101   90  101 1   
   102  102  103 1   
   103  102  110 1   
   104  103  104 1   
   105  103  106 1   
   106  103  111 1   
   107  104  105 2   
   108  104  114 1   
   109  106  107 1   
   110  106  112 1   
   111  106  113 1   
   112  107  108 1   
   113  107  109 1   
   114  114  115 1   
   115  114  125 1   
   116  115  116 1   
   117  115  118 1   
   118  115  126 1   
   119  116  117 2   
   120  116  134 1   
   121  118  119 1   
   122  118  127 1   
   123  118  128 1   
   124  119  120 ar  
   125  119  121 ar  
   126  120  122 ar  
   127  120  129 1   
   128  121  123 ar  
   129  121  130 1   
   130  122  124 ar  
   131  122  131 1   
   132  123  124 ar  
   133  123  132 1   
   134  124  133 1   
   135  134  135 1   
   136  134  140 1   
   137  135  136 1   
   138  135  138 1   
   139  135  141 1   
   140  136  137 2   
   141  136  148 1   
   142  138  139 1   
   143  138  142 1   
   144  138  143 1   
   145  139  140 1   
   146  139  144 1   
   147  139  145 1   
   148  140  146 1   
   149  140  147 1   
   150  148  149 1   
   151  148  157 1   
   152  149  150 1   
   153  149  152 1   
   154  149  158 1   
   155  150  151 2   
   156  150  163 1   
   157  152  153 1   
   158  152  159 1   
   159  152  160 1   
   160  153  154 1   
   161  153  161 1   
   162  153  162 1   
   163  154  155 1   
   164  154  156 1   
   165  163  164 1   
   166  163  168 1   
   167  164  165 1   
   168  164  166 1   
   169  164  167 1   
   170  170  171 1   
   171  170  172 1   
   172  173  174 1   
   173  173  175 1   
@<TRIPOS>SUBSTRUCTURE
     1 MOL         1 TEMP              0 ****  ****    0 ROOT
