@<TRIPOS>MOLECULE
MOL
  189   185     1     0     0
SMALL
resp


@<TRIPOS>ATOM
      1 C1         -0.2410    4.1360    5.5340 c3        1 MOL     -0.323515
      2 C2         -1.0820    3.7120    4.4120 c         1 MOL      0.739053
      3 O1         -1.4830    2.5480    4.4130 o         1 MOL     -0.612302
      4 H1         -0.6800    3.7870    6.4690 hc        1 MOL      0.080280
      5 H2          0.7560    3.7130    5.4220 hc        1 MOL      0.080280
      6 H3         -0.1750    5.2240    5.5490 hc        1 MOL      0.080280
      7 N1         -1.4410    4.5980    3.4410 n         1 MOL     -0.665319
      8 C3         -2.0010    4.1360    2.1010 c3        1 MOL      0.216970
      9 C4         -1.7590    5.1920    0.9900 c         1 MOL      0.401759
     10 O2         -1.9430    6.3900    1.2380 o         1 MOL     -0.566127
     11 C5         -3.5250    3.8660    2.2820 c3        1 MOL     -0.169771
     12 C6         -4.1610    3.4050    0.9750 c         1 MOL      0.715355
     13 O3         -5.3670    3.7080    0.8050 o         1 MOL     -0.681944
     14 O4         -3.5100    2.6330    0.3190 o         1 MOL     -0.681944
     15 H4         -1.2130    5.5760    3.5820 hn        1 MOL      0.335682
     16 H5         -1.4900    3.1910    1.9070 h1        1 MOL      0.045029
     17 H6         -4.0750    4.7470    2.5860 hc        1 MOL      0.039257
     18 H7         -3.7520    3.1130    3.0380 hc        1 MOL      0.039257
     19 N2         -1.4810    4.8010   -0.2500 n         1 MOL     -0.037036
     20 C7         -1.4880    5.6450   -1.3840 c3        1 MOL     -0.184497
     21 C8         -2.2270    5.0240   -2.5550 c         1 MOL      0.535835
     22 O5         -2.3370    5.6110   -3.6240 o         1 MOL     -0.573843
     23 C9         -0.0340    5.9710   -1.7800 c3        1 MOL      0.177001
     24 C10         0.8370    4.7040   -2.0710 c3        1 MOL      0.219652
     25 C11         0.6420    6.9990   -0.8890 c3        1 MOL     -0.163512
     26 C12         2.2590    5.0370   -2.5720 c3        1 MOL     -0.385433
     27 H8         -1.1870    3.8390   -0.3930 hn        1 MOL      0.064247
     28 H9         -1.8710    6.6090   -1.0600 h1        1 MOL      0.110813
     29 H10        -0.1770    6.3820   -2.7730 hc        1 MOL     -0.065591
     30 H11         0.3100    4.0210   -2.7360 hc        1 MOL     -0.004236
     31 H12         0.9200    4.2060   -1.1050 hc        1 MOL     -0.004236
     32 H13         0.1880    7.9840   -0.9130 hc        1 MOL      0.025496
     33 H14         0.5910    6.6230    0.1280 hc        1 MOL      0.025496
     34 H15         1.6950    7.2370   -1.1010 hc        1 MOL      0.025496
     35 H16         2.1500    5.5430   -3.5200 hc        1 MOL      0.082694
     36 H17         2.8380    5.5050   -1.7790 hc        1 MOL      0.082694
     37 H18         2.6890    4.0700   -2.8580 hc        1 MOL      0.082694
     38 N3         -2.9050    3.8680   -2.4400 n         1 MOL     -0.330890
     39 C13        -3.5730    3.2250   -3.5900 c3        1 MOL     -0.039823
     40 C14        -4.9360    2.5740   -3.2710 c         1 MOL      0.381530
     41 O6         -5.6330    2.2450   -4.2280 o         1 MOL     -0.526328
     42 C15        -2.6220    2.2200   -4.1590 c3        1 MOL     -0.128161
     43 C16        -2.2350    1.1640   -3.1720 c         1 MOL      0.814326
     44 O7         -2.9750    0.9250   -2.1380 o         1 MOL     -0.741507
     45 O8         -1.2830    0.4310   -3.4600 o         1 MOL     -0.741507
     46 H19        -2.8520    3.3240   -1.5860 hn        1 MOL      0.172720
     47 H20        -3.8480    3.9570   -4.3530 h1        1 MOL      0.113388
     48 H21        -1.7490    2.8150   -4.4380 hc        1 MOL      0.038874
     49 H22        -3.0230    1.7480   -5.0510 hc        1 MOL      0.038874
     50 N4         -5.4650    2.5410   -2.0200 n         1 MOL     -0.016710
     51 C17        -6.9040    2.3270   -1.7810 c3        1 MOL     -0.277152
     52 C18        -7.3750    0.8510   -2.0230 c         1 MOL      0.578885
     53 O9         -8.4590    0.6620   -2.6180 o         1 MOL     -0.591235
     54 H23        -4.9070    2.7470   -1.2030 hn        1 MOL      0.070441
     55 H24        -7.4700    3.0640   -2.3490 h1        1 MOL      0.105443
     56 H25        -7.0130    2.5240   -0.7100 h1        1 MOL      0.105443
     57 N5         -6.6000   -0.1110   -1.5300 n         1 MOL     -0.527763
     58 C19        -6.8990   -1.5180   -1.8740 c3        1 MOL      0.168308
     59 C20        -7.3150   -2.4270   -0.6730 c         1 MOL      0.376703
     60 O10        -7.7940   -3.5500   -0.9270 o         1 MOL     -0.540930
     61 C21        -5.7080   -2.1350   -2.5940 c3        1 MOL     -0.186361
     62 C22        -4.3590   -2.0370   -1.8580 c         1 MOL      0.694784
     63 O11        -4.2890   -1.3950   -0.8210 o         1 MOL     -0.644991
     64 O12        -3.4700   -2.7140   -2.3550 o         1 MOL     -0.644991
     65 H26        -5.7020    0.0920   -1.1200 hn        1 MOL      0.360076
     66 H27        -7.7380   -1.6420   -2.5670 h1        1 MOL      0.082958
     67 H28        -5.6140   -1.4420   -3.4290 hc        1 MOL      0.052653
     68 H29        -5.8450   -3.1670   -2.9210 hc        1 MOL      0.052653
     69 N6         -7.0500   -2.0400    0.6000 n         1 MOL     -0.330235
     70 C23        -7.2430   -2.9650    1.7410 c3        1 MOL      0.029497
     71 C24        -6.0600   -3.8630    2.0900 c         1 MOL      0.398136
     72 O13        -6.2510   -4.9550    2.6920 o         1 MOL     -0.565917
     73 H30        -6.7160   -1.1120    0.8130 hn        1 MOL      0.235148
     74 H31        -8.1480   -3.5530    1.5380 h1        1 MOL      0.053418
     75 H32        -7.5460   -2.4010    2.6160 h1        1 MOL      0.053418
     76 N7         -4.8900   -3.4310    1.6110 n         1 MOL     -0.353045
     77 C25        -3.5690   -4.1780    1.7110 c3        1 MOL      0.187643
     78 C26        -2.4130   -3.2270    1.9120 c         1 MOL      0.216021
     79 O14        -2.6080   -2.0320    1.7490 o         1 MOL     -0.418574
     80 C27        -3.3370   -5.0100    0.4480 c3        1 MOL      0.029216
     81 C28        -4.4600   -5.9060   -0.0850 c3        1 MOL     -0.294800
     82 C29        -4.0630   -6.6650   -1.3270 c         1 MOL      0.569037
     83 N8         -5.0410   -7.0280   -2.1190 n         1 MOL     -0.594907
     84 O15        -2.9070   -6.8690   -1.7230 o         1 MOL     -0.532297
     85 H33        -4.9280   -2.5950    1.0550 hn        1 MOL      0.299060
     86 H34        -3.6250   -4.7950    2.6010 h1        1 MOL      0.010833
     87 H35        -2.4630   -5.6230    0.6450 hc        1 MOL      0.023234
     88 H36        -3.1170   -4.3190   -0.3700 hc        1 MOL      0.023234
     89 H37        -5.3510   -5.2910   -0.1790 hc        1 MOL      0.096152
     90 H38        -4.7320   -6.5260    0.7730 hc        1 MOL      0.096152
     91 H39        -5.9610   -6.9370   -1.7270 hn        1 MOL      0.290376
     92 H40        -4.9370   -7.6310   -2.9220 hn        1 MOL      0.290376
     93 N9         -1.3250   -3.6600    2.4680 n         1 MOL     -0.196193
     94 C30        -0.1320   -2.7980    2.4670 c3        1 MOL      0.079475
     95 C31         0.9570   -3.1790    1.4570 c         1 MOL      0.356253
     96 O16         1.3490   -4.3520    1.5140 o         1 MOL     -0.560558
     97 C32         0.3630   -2.7690    3.8570 c3        1 MOL      0.232574
     98 C33         1.6580   -1.9560    4.1460 c3        1 MOL     -0.197405
     99 C34        -0.7440   -2.4270    4.9190 c3        1 MOL     -0.197405
    100 H41        -1.2880   -4.6210    2.7540 hn        1 MOL      0.235835
    101 H42        -0.3380   -1.7550    2.2580 h1        1 MOL      0.002577
    102 H43         0.4930   -3.8090    4.1640 hc        1 MOL     -0.045297
    103 H44         1.9890   -2.0760    5.1790 hc        1 MOL      0.029644
    104 H45         2.4390   -2.4130    3.5430 hc        1 MOL      0.029644
    105 H46         1.4370   -0.9190    3.8900 hc        1 MOL      0.029644
    106 H47        -1.0700   -1.3960    4.8970 hc        1 MOL      0.029644
    107 H48        -1.6620   -2.9430    4.6410 hc        1 MOL      0.029644
    108 H49        -0.3910   -2.7710    5.8910 hc        1 MOL      0.029644
    109 N10         1.4160   -2.2220    0.6620 n         1 MOL     -0.175467
    110 C35         2.5190   -2.4050   -0.1710 c3        1 MOL      0.101471
    111 C36         3.8420   -2.1580    0.6090 c         1 MOL      0.062149
    112 O17         3.7890   -1.4260    1.6010 o         1 MOL     -0.111795
    113 C37         2.3980   -1.5020   -1.3330 c3        1 MOL     -0.229388
    114 C38         3.6600   -1.5020   -2.1770 c         1 MOL      0.634913
    115 N11         3.8950   -2.5230   -2.9030 n         1 MOL     -0.659231
    116 O18         4.4400   -0.5220   -2.1260 o         1 MOL     -0.579725
    117 H50         0.8900   -1.3570    0.6390 hn        1 MOL      0.216133
    118 H51         2.4990   -3.4390   -0.4870 h1        1 MOL      0.050614
    119 H52         2.2620   -0.5280   -0.8530 hc        1 MOL      0.122248
    120 H53         1.5550   -1.8470   -1.9390 hc        1 MOL      0.122248
    121 H54         3.3070   -3.3330   -2.8940 hn        1 MOL      0.331916
    122 H55         4.8040   -2.4770   -3.3520 hn        1 MOL      0.331916
    123 N12         4.9930   -2.6260    0.1330 n         1 MOL     -0.048794
    124 C39         6.2520   -2.4720    0.7940 c3        1 MOL     -0.149141
    125 C40         6.7800   -1.0360    0.7800 c         1 MOL      0.601765
    126 O19         7.6100   -0.6890    1.6480 o         1 MOL     -0.635881
    127 C41         7.3110   -3.4320    0.2510 c3        1 MOL     -0.064774
    128 C42         7.5930   -3.2770   -1.2290 ca        1 MOL     -0.105783
    129 C43         7.1060   -4.2570   -2.0980 ca        1 MOL      0.073422
    130 C44         8.2970   -2.2020   -1.7910 ca        1 MOL      0.073422
    131 C45         7.4760   -4.3240   -3.4470 ca        1 MOL     -0.473038
    132 C46         8.5710   -2.1680   -3.1560 ca        1 MOL     -0.473038
    133 C47         8.2330   -3.2390   -4.0110 ca        1 MOL      0.531421
    134 O20         8.6470   -3.2410   -5.2980 oh        1 MOL     -0.595079
    135 H56         5.0100   -3.0920   -0.7580 hn        1 MOL      0.072024
    136 H57         6.0180   -2.6150    1.8510 h1        1 MOL      0.089850
    137 H58         7.0750   -4.4800    0.4400 hc        1 MOL      0.052316
    138 H59         8.2590   -3.3910    0.7960 hc        1 MOL      0.052316
    139 H60         6.6290   -5.1130   -1.6640 ha        1 MOL      0.062794
    140 H61         8.5450   -1.3060   -1.2410 ha        1 MOL      0.062794
    141 H62         7.2740   -5.1560   -4.1010 ha        1 MOL      0.175368
    142 H63         9.1050   -1.3470   -3.6000 ha        1 MOL      0.175368
    143 H64         9.1180   -2.4150   -5.4660 ho        1 MOL      0.423234
    144 N13         6.2020   -0.1100    0.0460 n         1 MOL      0.047514
    145 C48         6.5890    1.3330    0.1320 c3        1 MOL     -0.148134
    146 C49         5.6980    2.0280    1.2060 c         1 MOL      0.348490
    147 O21         6.1140    3.0600    1.7300 o         1 MOL     -0.508053
    148 C50         6.3910    2.0700   -1.1730 c3        1 MOL      0.076616
    149 C51         7.3890    1.6280   -2.2170 c3        1 MOL     -0.174104
    150 C52         8.8310    1.9220   -1.7660 c         1 MOL      0.712416
    151 O22         9.5900    0.9760   -1.6430 o         1 MOL     -0.713683
    152 O23         9.1950    3.0920   -1.7190 o         1 MOL     -0.713683
    153 H65         5.7180   -0.3980   -0.7910 hn        1 MOL      0.122177
    154 H66         7.6420    1.5160    0.3410 h1        1 MOL      0.132091
    155 H67         6.4670    3.1430   -1.0240 hc        1 MOL      0.010893
    156 H68         5.3430    1.9660   -1.4460 hc        1 MOL      0.010893
    157 H69         7.1620    2.1750   -3.1390 hc        1 MOL      0.001791
    158 H70         7.2230    0.5580   -2.3960 hc        1 MOL      0.001791
    159 N14         4.5270    1.4660    1.4950 n         1 MOL     -0.142891
    160 C53         3.5800    1.8450    2.5990 c3        1 MOL     -0.087294
    161 C54         4.0400    1.3490    3.9780 c         1 MOL      0.499631
    162 O24         3.9690    2.0790    4.9430 o         1 MOL     -0.529493
    163 C55         2.0540    1.5640    2.3400 c3        1 MOL      0.059757
    164 C56         1.4630    2.2010    1.0600 c3        1 MOL     -0.137276
    165 C57         0.1730    1.5280    0.5310 c         1 MOL      0.642955
    166 O25        -0.4960    2.0390   -0.3470 o         1 MOL     -0.650645
    167 O26        -0.1640    0.4400    0.9960 o         1 MOL     -0.650645
    168 H71         4.2810    0.6280    0.9790 hn        1 MOL      0.066529
    169 H72         3.5550    2.9330    2.6020 h1        1 MOL      0.069309
    170 H73         1.4890    1.8340    3.2370 hc        1 MOL      0.023470
    171 H74         1.9630    0.4720    2.2900 hc        1 MOL      0.023470
    172 H75         2.2700    2.0300    0.3500 hc        1 MOL      0.022150
    173 H76         1.3670    3.2660    1.2510 hc        1 MOL      0.022150
    174 N15         4.5960    0.0520    4.0580 n         1 MOL     -0.135465
    175 C58         4.6780   -0.6190    5.3050 c3        1 MOL     -0.217210
    176 H77         3.6880   -0.6650    5.7580 h1        1 MOL      0.081351
    177 H78         5.0520   -1.6310    5.1490 h1        1 MOL      0.081351
    178 H79         5.3550   -0.0780    5.9650 h1        1 MOL      0.081351
    179 H80         4.6360   -0.4470    3.1830 hn        1 MOL      0.031983
    180 Ca1        -2.6090    0.2030    0.2920 Ca        1 MOL      1.693763
    181 O27        -2.5020    0.7810    2.9270 oh        1 MOL     -0.976756
    182 O28        -1.2590   -1.5430   -1.4230 oh        1 MOL     -0.976756
    183 H81        -1.9250    1.4490    3.2970 ho        1 MOL      0.450294
    184 H82        -1.1810   -0.9800   -2.1990 ho        1 MOL      0.450294
    185 H83        -2.7520    0.2410    3.6820 ho        1 MOL      0.450294
    186 H84        -2.0430   -2.0670   -1.5970 ho        1 MOL      0.450294
    187 O29        -4.9790   -0.0290    1.7460 oh        1 MOL     -0.976756
    188 H85        -4.5730    0.0400    2.6000 ho        1 MOL      0.450294
    189 H86        -5.7690    0.5030    1.8100 ho        1 MOL      0.450294
@<TRIPOS>BOND
     1    1    2 1   
     2    1    4 1   
     3    1    5 1   
     4    1    6 1   
     5    2    3 2   
     6    2    7 1   
     7    7    8 1   
     8    7   15 1   
     9    8    9 1   
    10    8   11 1   
    11    8   16 1   
    12    9   10 2   
    13    9   19 1   
    14   11   12 1   
    15   11   17 1   
    16   11   18 1   
    17   12   13 1   
    18   12   14 1   
    19   19   20 1   
    20   19   27 1   
    21   20   21 1   
    22   20   23 1   
    23   20   28 1   
    24   21   22 2   
    25   21   38 1   
    26   23   24 1   
    27   23   25 1   
    28   23   29 1   
    29   24   26 1   
    30   24   30 1   
    31   24   31 1   
    32   25   32 1   
    33   25   33 1   
    34   25   34 1   
    35   26   35 1   
    36   26   36 1   
    37   26   37 1   
    38   38   39 1   
    39   38   46 1   
    40   39   40 1   
    41   39   42 1   
    42   39   47 1   
    43   40   41 2   
    44   40   50 1   
    45   42   43 1   
    46   42   48 1   
    47   42   49 1   
    48   43   44 1   
    49   43   45 1   
    50   50   51 1   
    51   50   54 1   
    52   51   52 1   
    53   51   55 1   
    54   51   56 1   
    55   52   53 2   
    56   52   57 1   
    57   57   58 1   
    58   57   65 1   
    59   58   59 1   
    60   58   61 1   
    61   58   66 1   
    62   59   60 2   
    63   59   69 1   
    64   61   62 1   
    65   61   67 1   
    66   61   68 1   
    67   62   63 1   
    68   62   64 1   
    69   69   70 1   
    70   69   73 1   
    71   70   71 1   
    72   70   74 1   
    73   70   75 1   
    74   71   72 2   
    75   71   76 1   
    76   76   77 1   
    77   76   85 1   
    78   77   78 1   
    79   77   80 1   
    80   77   86 1   
    81   78   79 2   
    82   78   93 1   
    83   80   81 1   
    84   80   87 1   
    85   80   88 1   
    86   81   82 1   
    87   81   89 1   
    88   81   90 1   
    89   82   83 1   
    90   82   84 2   
    91   83   91 1   
    92   83   92 1   
    93   93   94 1   
    94   93  100 1   
    95   94   95 1   
    96   94   97 1   
    97   94  101 1   
    98   95   96 2   
    99   95  109 1   
   100   97   98 1   
   101   97   99 1   
   102   97  102 1   
   103   98  103 1   
   104   98  104 1   
   105   98  105 1   
   106   99  106 1   
   107   99  107 1   
   108   99  108 1   
   109  109  110 1   
   110  109  117 1   
   111  110  111 1   
   112  110  113 1   
   113  110  118 1   
   114  111  112 2   
   115  111  123 1   
   116  113  114 1   
   117  113  119 1   
   118  113  120 1   
   119  114  115 1   
   120  114  116 2   
   121  115  121 1   
   122  115  122 1   
   123  123  124 1   
   124  123  135 1   
   125  124  125 1   
   126  124  127 1   
   127  124  136 1   
   128  125  126 2   
   129  125  144 1   
   130  127  128 1   
   131  127  137 1   
   132  127  138 1   
   133  128  129 ar  
   134  128  130 ar  
   135  129  131 ar  
   136  129  139 1   
   137  130  132 ar  
   138  130  140 1   
   139  131  133 ar  
   140  131  141 1   
   141  132  133 ar  
   142  132  142 1   
   143  133  134 1   
   144  134  143 1   
   145  144  145 1   
   146  144  153 1   
   147  145  146 1   
   148  145  148 1   
   149  145  154 1   
   150  146  147 2   
   151  146  159 1   
   152  148  149 1   
   153  148  155 1   
   154  148  156 1   
   155  149  150 1   
   156  149  157 1   
   157  149  158 1   
   158  150  151 1   
   159  150  152 1   
   160  159  160 1   
   161  159  168 1   
   162  160  161 1   
   163  160  163 1   
   164  160  169 1   
   165  161  162 2   
   166  161  174 1   
   167  163  164 1   
   168  163  170 1   
   169  163  171 1   
   170  164  165 1   
   171  164  172 1   
   172  164  173 1   
   173  165  166 1   
   174  165  167 1   
   175  174  175 1   
   176  174  179 1   
   177  175  176 1   
   178  175  177 1   
   179  175  178 1   
   180  181  183 1   
   181  181  185 1   
   182  182  184 1   
   183  182  186 1   
   184  187  188 1   
   185  187  189 1   
@<TRIPOS>SUBSTRUCTURE
     1 MOL         1 TEMP              0 ****  ****    0 ROOT
