@<TRIPOS>MOLECULE
MOL
  179   176     1     0     0
SMALL
resp


@<TRIPOS>ATOM
      1 C1          1.9310    2.7620    5.1950 c3        1 MOL     -0.220580
      2 C2          1.1360    2.3900    3.9290 c         1 MOL      0.526439
      3 O1          1.7170    2.1040    2.8680 o         1 MOL     -0.519980
      4 H1          2.3470    1.8580    5.6410 hc        1 MOL      0.073431
      5 H2          2.7410    3.4400    4.9290 hc        1 MOL      0.073431
      6 H3          1.2680    3.2480    5.9110 hc        1 MOL      0.073431
      7 N1         -0.1900    2.3930    4.0190 n         1 MOL     -0.523647
      8 C3         -1.0800    2.2230    2.9030 c3        1 MOL      0.001967
      9 C4         -1.5130    3.5460    2.1410 c         1 MOL      0.646340
     10 O2         -2.6670    4.0420    2.2800 o         1 MOL     -0.528676
     11 C5         -2.3110    1.3520    3.3400 c3        1 MOL     -0.106691
     12 C6         -3.0040    0.7200    2.1480 c         1 MOL      0.772784
     13 O3         -4.2180    0.4160    2.2560 o         1 MOL     -0.744980
     14 O4         -2.2690    0.5770    1.1510 o         1 MOL     -0.744980
     15 H4         -0.6610    2.6250    4.8900 hn        1 MOL      0.338233
     16 H5         -0.5800    1.7040    2.0770 h1        1 MOL      0.001751
     17 H6         -2.9620    2.0480    3.8570 hc        1 MOL      0.026418
     18 H7         -1.9350    0.5340    3.9460 hc        1 MOL      0.026418
     19 N2         -0.5190    4.1440    1.4420 n         1 MOL     -0.467392
     20 C7         -0.6560    5.5270    0.8890 c3        1 MOL     -0.065647
     21 C8         -1.7870    5.6700   -0.1550 c         1 MOL      0.480536
     22 O5         -2.2840    6.7950   -0.2960 o         1 MOL     -0.575584
     23 C9          0.7480    6.0110    0.4220 c3        1 MOL     -0.146838
     24 C10         1.2930    5.4130   -0.8170 c3        1 MOL      0.424326
     25 C11         2.6510    5.9210   -1.1820 c3        1 MOL     -0.092437
     26 C12         3.1290    5.6250   -2.6350 c3        1 MOL     -0.113697
     27 N3          2.4560    6.5810   -3.6250 n4        1 MOL     -0.300256
     28 H8          0.3790    3.7070    1.3110 hn        1 MOL      0.366558
     29 H9         -0.9980    6.1310    1.7250 h1        1 MOL      0.120012
     30 H10         1.4670    5.7940    1.2130 hc        1 MOL      0.039970
     31 H11         0.7370    7.0830    0.3170 hc        1 MOL      0.039970
     32 H12         0.5850    5.7280   -1.5880 hc        1 MOL     -0.108501
     33 H13         1.3920    4.3300   -0.7690 hc        1 MOL     -0.108501
     34 H14         3.3840    5.4930   -0.4930 hc        1 MOL      0.047470
     35 H15         2.7640    6.9910   -1.0060 hc        1 MOL      0.047470
     36 H16         2.9360    4.5930   -2.9370 hx        1 MOL      0.140230
     37 H17         4.1920    5.8460   -2.6320 hx        1 MOL      0.140230
     38 H18         1.5210    6.2660   -3.8500 hn        1 MOL      0.312402
     39 H19         2.3450    7.4940   -3.2160 hn        1 MOL      0.312402
     40 H20         3.0410    6.7300   -4.4320 hn        1 MOL      0.312402
     41 N4         -2.2180    4.6980   -0.9000 n         1 MOL     -0.254314
     42 C13        -3.4310    4.7200   -1.7700 c3        1 MOL      0.045731
     43 C14        -4.7060    4.2000   -0.9910 c         1 MOL      0.416502
     44 O6         -5.7780    4.3640   -1.5680 o         1 MOL     -0.554894
     45 C15        -3.2920    3.8710   -3.0360 c3        1 MOL     -0.294975
     46 C16        -2.7510    2.4500   -2.9480 c         1 MOL      0.769323
     47 O7         -2.6260    1.9370   -1.8460 o         1 MOL     -0.717351
     48 O8         -2.6120    1.7810   -3.9610 o         1 MOL     -0.717351
     49 H21        -1.7660    3.7950   -0.8990 hn        1 MOL      0.171398
     50 H22        -3.5240    5.7420   -2.1320 h1        1 MOL      0.100826
     51 H23        -2.6360    4.4380   -3.7070 hc        1 MOL      0.083152
     52 H24        -4.2890    3.8260   -3.4900 hc        1 MOL      0.083152
     53 N5         -4.5900    3.6250    0.1590 n         1 MOL     -0.091302
     54 C17        -5.7320    3.1440    0.9950 c3        1 MOL     -0.101290
     55 C18        -6.4530    1.9700    0.4000 c         1 MOL      0.503537
     56 O9         -7.6260    1.7310    0.6850 o         1 MOL     -0.569165
     57 H25        -3.6530    3.4980    0.5050 hn        1 MOL      0.100777
     58 H26        -6.3190    4.0090    1.2940 h1        1 MOL      0.100928
     59 H27        -5.3360    2.7560    1.9360 h1        1 MOL      0.100928
     60 N6         -5.7650    1.1280   -0.3830 n         1 MOL     -0.200473
     61 C19        -6.3580    0.0200   -1.1220 c3        1 MOL      0.067095
     62 C20        -6.5540   -1.2880   -0.2490 c         1 MOL      0.324374
     63 O10        -7.2300   -2.2210   -0.7620 o         1 MOL     -0.506539
     64 C21        -5.7330   -0.1990   -2.4540 c3        1 MOL     -0.435377
     65 C22        -4.5830   -1.2750   -2.5640 c         1 MOL      0.673458
     66 N7         -4.8650   -2.5000   -3.1050 n         1 MOL     -0.684392
     67 O11        -3.4750   -1.1290   -2.0790 o         1 MOL     -0.645300
     68 H28        -4.7720    1.2440   -0.5500 hn        1 MOL      0.134667
     69 H29        -7.3580    0.3500   -1.3850 h1        1 MOL      0.116731
     70 H30        -5.2540    0.7190   -2.7820 hc        1 MOL      0.170190
     71 H31        -6.5260   -0.4470   -3.1620 hc        1 MOL      0.170190
     72 H32        -5.7510   -2.7020   -3.5420 hn        1 MOL      0.320698
     73 H33        -4.0670   -3.0870   -3.3000 hn        1 MOL      0.320698
     74 N8         -5.9700   -1.3590    0.9760 n         1 MOL     -0.118650
     75 C23        -6.1930   -2.3900    1.9800 c3        1 MOL     -0.261958
     76 C24        -5.1390   -3.3910    2.1860 c         1 MOL      0.533052
     77 O12        -5.3330   -4.4190    2.8010 o         1 MOL     -0.559146
     78 H34        -5.2580   -0.6920    1.2480 hn        1 MOL      0.283892
     79 H35        -7.1080   -2.9400    1.7640 h1        1 MOL      0.127691
     80 H36        -6.3830   -1.8050    2.8680 h1        1 MOL      0.127691
     81 N9         -3.9520   -3.1240    1.5930 n         1 MOL     -0.125067
     82 C25        -2.7330   -3.8370    2.0010 c3        1 MOL      0.012423
     83 C26        -1.4330   -3.0700    1.5820 c         1 MOL      0.555888
     84 O13        -1.4510   -2.3200    0.5710 o         1 MOL     -0.603069
     85 C27        -2.6490   -5.2590    1.3980 c3        1 MOL     -0.120098
     86 C28        -2.9580   -5.2540   -0.0680 ca        1 MOL      0.107775
     87 C29        -2.0100   -5.0780   -1.0580 ca        1 MOL     -0.204908
     88 C30        -4.2330   -5.5350   -0.4660 ca        1 MOL     -0.204908
     89 C31        -2.3280   -5.2610   -2.3760 ca        1 MOL     -0.234658
     90 C32        -4.6500   -5.6940   -1.8080 ca        1 MOL     -0.234658
     91 C33        -3.6410   -5.6570   -2.7460 ca        1 MOL      0.402017
     92 O14        -3.9220   -5.9710   -4.0340 oh        1 MOL     -0.619610
     93 H37        -3.9300   -2.2550    1.0910 hn        1 MOL      0.113629
     94 H38        -2.6670   -3.7790    3.0820 h1        1 MOL      0.035885
     95 H39        -3.3500   -5.9140    1.9180 hc        1 MOL      0.061661
     96 H40        -1.6770   -5.6590    1.6680 hc        1 MOL      0.061661
     97 H41        -0.9650   -4.8770   -0.8550 ha        1 MOL      0.168507
     98 H42        -5.0090   -5.6830    0.2730 ha        1 MOL      0.168507
     99 H43        -1.6240   -5.1260   -3.1840 ha        1 MOL      0.127893
    100 H44        -5.6600   -5.8970   -2.1130 ha        1 MOL      0.127893
    101 H45        -4.8510   -6.0200   -4.2670 ho        1 MOL      0.442492
    102 N10        -0.3040   -3.3290    2.1940 n         1 MOL     -0.433467
    103 C34         0.9810   -2.5970    1.9790 c3        1 MOL     -0.027489
    104 C35         2.0040   -3.5760    1.3440 c         1 MOL      0.544737
    105 O15         1.8250   -4.7650    1.2490 o         1 MOL     -0.528568
    106 C36         1.4860   -2.1700    3.4090 c3        1 MOL      0.121753
    107 C37         0.4770   -1.3010    4.0780 c3        1 MOL     -0.033984
    108 C38         2.8450   -1.5280    3.3820 c3        1 MOL     -0.389357
    109 C39         0.6310   -1.3560    5.6240 c3        1 MOL     -0.098190
    110 H46        -0.2490   -4.0470    2.9010 hn        1 MOL      0.285325
    111 H47         0.8260   -1.7110    1.3660 h1        1 MOL      0.093910
    112 H48         1.6900   -3.0220    4.0720 hc        1 MOL      0.013906
    113 H49        -0.5310   -1.6280    3.8280 hc        1 MOL      0.044040
    114 H50         0.6150   -0.2380    3.8520 hc        1 MOL      0.044040
    115 H51         3.1850   -1.2430    4.3710 hc        1 MOL      0.096078
    116 H52         3.6360   -2.1830    3.0210 hc        1 MOL      0.096078
    117 H53         2.7580   -0.6600    2.7170 hc        1 MOL      0.096078
    118 H54         0.1450   -2.1940    6.1280 hc        1 MOL      0.024144
    119 H55         1.6770   -1.4170    5.8890 hc        1 MOL      0.024144
    120 H56         0.1840   -0.5220    6.1760 hc        1 MOL      0.024144
    121 N11         3.0180   -2.9170    0.6830 n         1 MOL     -0.328010
    122 C40         3.9270   -3.4790   -0.3000 c3        1 MOL     -0.139574
    123 C41         5.3060   -2.9540   -0.2300 c         1 MOL      0.595225
    124 O16         5.6050   -2.0530    0.5690 o         1 MOL     -0.530459
    125 C42         3.3610   -3.1990   -1.7350 c3        1 MOL     -0.016462
    126 O17         3.3240   -1.7980   -2.0040 oh        1 MOL     -0.623695
    127 H57         3.0310   -1.9160    0.7790 hn        1 MOL      0.377287
    128 H58         4.0000   -4.5650   -0.2440 h1        1 MOL      0.086638
    129 H59         2.3150   -3.5000   -1.7840 h1        1 MOL      0.083002
    130 H60         3.8990   -3.7410   -2.5160 h1        1 MOL      0.083002
    131 H61         2.5010   -1.5220   -1.5880 ho        1 MOL      0.486634
    132 N12         6.2470   -3.5660   -1.0080 n         1 MOL     -0.426445
    133 C43         7.6840   -3.4340   -0.9310 c3        1 MOL      0.117493
    134 C44         8.0340   -1.9410   -1.1660 c         1 MOL      0.462117
    135 O18         8.5550   -1.2610   -0.2770 o         1 MOL     -0.511877
    136 C45         8.3060   -4.4950   -1.8370 c3        1 MOL     -0.217013
    137 H62         5.7970   -4.2990   -1.5390 hn        1 MOL      0.251540
    138 H63         7.9280   -3.6060    0.1180 h1        1 MOL      0.072539
    139 H64         8.3780   -4.0450   -2.8280 hc        1 MOL      0.073639
    140 H65         9.2980   -4.6610   -1.4450 hc        1 MOL      0.073639
    141 H66         7.8280   -5.4810   -1.8680 hc        1 MOL      0.073639
    142 N13         7.6120   -1.3300   -2.3090 n         1 MOL     -0.346206
    143 C46         7.7050    0.0880   -2.5610 c3        1 MOL     -0.001327
    144 C47         7.0820    1.0490   -1.5230 c         1 MOL      0.346825
    145 O19         7.3960    2.2530   -1.4920 o         1 MOL     -0.529292
    146 C48         7.0690    0.3190   -3.9230 c3        1 MOL     -0.290773
    147 H67         7.0680   -1.8480   -2.9990 hn        1 MOL      0.264023
    148 H68         8.7670    0.2340   -2.7300 h1        1 MOL      0.116533
    149 H69         7.5360   -0.1690   -4.7710 hc        1 MOL      0.088091
    150 H70         6.0170    0.0320   -3.8410 hc        1 MOL      0.088091
    151 H71         6.9940    1.3880   -4.1400 hc        1 MOL      0.088091
    152 N14         6.1240    0.5650   -0.7410 n         1 MOL      0.168300
    153 C49         5.4290    1.3880    0.3060 c3        1 MOL     -0.596973
    154 C50         6.1210    1.4290    1.7240 c         1 MOL      0.616839
    155 O20         5.9880    2.4410    2.4880 o         1 MOL     -0.550730
    156 C51         3.9440    1.0380    0.3580 c3        1 MOL      0.489826
    157 C52         3.1370    1.3950   -0.9110 c3        1 MOL     -0.154920
    158 C53         1.7510    0.8290   -0.8250 c         1 MOL      0.852235
    159 O21         0.7840    1.6740   -0.8270 o         1 MOL     -0.821672
    160 O22         1.5430   -0.3710   -0.6570 o         1 MOL     -0.821672
    161 H72         5.8290   -0.3940   -0.8700 hn        1 MOL      0.054951
    162 H73         5.5670    2.4370    0.0970 h1        1 MOL      0.187883
    163 H74         3.5090    1.6330    1.1560 hc        1 MOL     -0.072433
    164 H75         3.7660    0.0310    0.7410 hc        1 MOL     -0.072433
    165 H76         3.5340    0.9880   -1.8410 hc        1 MOL     -0.009222
    166 H77         3.1180    2.4860   -0.9620 hc        1 MOL     -0.009222
    167 N15         6.9380    0.4040    2.1480 n         1 MOL     -0.268449
    168 C54         7.8190    0.4330    3.2830 c3        1 MOL     -0.328430
    169 H78         7.8920   -0.5670    3.7100 h1        1 MOL      0.130911
    170 H79         8.8090    0.7640    2.9680 h1        1 MOL      0.130911
    171 H80         7.4260    1.1200    4.0320 h1        1 MOL      0.130911
    172 H81         6.9580   -0.4310    1.5860 hn        1 MOL      0.263041
    173 Ca1        -1.1350   -0.1390   -1.0910 Ca        1 MOL      1.791901
    174 O23        -0.7040   -2.5670   -2.1180 oh        1 MOL     -0.893309
    175 H82        -1.5000   -3.0780   -1.9820 ho        1 MOL      0.415284
    176 H83        -0.2490   -3.0220   -2.8280 ho        1 MOL      0.415284
    177 O24        -0.3970    0.2550   -3.6610 oh        1 MOL     -0.893309
    178 H84        -1.1420    0.7980   -3.8920 ho        1 MOL      0.415284
    179 H85        -0.0880   -0.1020   -4.4980 ho        1 MOL      0.415284
@<TRIPOS>BOND
     1    1    2 1   
     2    1    4 1   
     3    1    5 1   
     4    1    6 1   
     5    2    3 2   
     6    2    7 1   
     7    7    8 1   
     8    7   15 1   
     9    8    9 1   
    10    8   11 1   
    11    8   16 1   
    12    9   10 2   
    13    9   19 1   
    14   11   12 1   
    15   11   17 1   
    16   11   18 1   
    17   12   13 1   
    18   12   14 1   
    19   19   20 1   
    20   19   28 1   
    21   20   21 1   
    22   20   23 1   
    23   20   29 1   
    24   21   22 2   
    25   21   41 1   
    26   23   24 1   
    27   23   30 1   
    28   23   31 1   
    29   24   25 1   
    30   24   32 1   
    31   24   33 1   
    32   25   26 1   
    33   25   34 1   
    34   25   35 1   
    35   26   27 1   
    36   26   36 1   
    37   26   37 1   
    38   27   38 1   
    39   27   39 1   
    40   27   40 1   
    41   41   42 1   
    42   41   49 1   
    43   42   43 1   
    44   42   45 1   
    45   42   50 1   
    46   43   44 2   
    47   43   53 1   
    48   45   46 1   
    49   45   51 1   
    50   45   52 1   
    51   46   47 1   
    52   46   48 1   
    53   53   54 1   
    54   53   57 1   
    55   54   55 1   
    56   54   58 1   
    57   54   59 1   
    58   55   56 2   
    59   55   60 1   
    60   60   61 1   
    61   60   68 1   
    62   61   62 1   
    63   61   64 1   
    64   61   69 1   
    65   62   63 2   
    66   62   74 1   
    67   64   65 1   
    68   64   70 1   
    69   64   71 1   
    70   65   66 1   
    71   65   67 2   
    72   66   72 1   
    73   66   73 1   
    74   74   75 1   
    75   74   78 1   
    76   75   76 1   
    77   75   79 1   
    78   75   80 1   
    79   76   77 2   
    80   76   81 1   
    81   81   82 1   
    82   81   93 1   
    83   82   83 1   
    84   82   85 1   
    85   82   94 1   
    86   83   84 2   
    87   83  102 1   
    88   85   86 1   
    89   85   95 1   
    90   85   96 1   
    91   86   87 ar  
    92   86   88 ar  
    93   87   89 ar  
    94   87   97 1   
    95   88   90 ar  
    96   88   98 1   
    97   89   91 ar  
    98   89   99 1   
    99   90   91 ar  
   100   90  100 1   
   101   91   92 1   
   102   92  101 1   
   103  102  103 1   
   104  102  110 1   
   105  103  104 1   
   106  103  106 1   
   107  103  111 1   
   108  104  105 2   
   109  104  121 1   
   110  106  107 1   
   111  106  108 1   
   112  106  112 1   
   113  107  109 1   
   114  107  113 1   
   115  107  114 1   
   116  108  115 1   
   117  108  116 1   
   118  108  117 1   
   119  109  118 1   
   120  109  119 1   
   121  109  120 1   
   122  121  122 1   
   123  121  127 1   
   124  122  123 1   
   125  122  125 1   
   126  122  128 1   
   127  123  124 2   
   128  123  132 1   
   129  125  126 1   
   130  125  129 1   
   131  125  130 1   
   132  126  131 1   
   133  132  133 1   
   134  132  137 1   
   135  133  134 1   
   136  133  136 1   
   137  133  138 1   
   138  134  135 2   
   139  134  142 1   
   140  136  139 1   
   141  136  140 1   
   142  136  141 1   
   143  142  143 1   
   144  142  147 1   
   145  143  144 1   
   146  143  146 1   
   147  143  148 1   
   148  144  145 2   
   149  144  152 1   
   150  146  149 1   
   151  146  150 1   
   152  146  151 1   
   153  152  153 1   
   154  152  161 1   
   155  153  154 1   
   156  153  156 1   
   157  153  162 1   
   158  154  155 2   
   159  154  167 1   
   160  156  157 1   
   161  156  163 1   
   162  156  164 1   
   163  157  158 1   
   164  157  165 1   
   165  157  166 1   
   166  158  159 1   
   167  158  160 1   
   168  167  168 1   
   169  167  172 1   
   170  168  169 1   
   171  168  170 1   
   172  168  171 1   
   173  174  175 1   
   174  174  176 1   
   175  177  178 1   
   176  177  179 1   
@<TRIPOS>SUBSTRUCTURE
     1 MOL         1 TEMP              0 ****  ****    0 ROOT
