@<TRIPOS>MOLECULE
MOL
  189   185     1     0     0
SMALL
resp


@<TRIPOS>ATOM
      1 C1         -0.3470    0.8450    6.7250 c3        1 MOL     -0.190976
      2 C2         -0.4870    0.5600    5.2060 c         1 MOL      0.750729
      3 O1          0.4690    0.7350    4.4390 o         1 MOL     -0.646134
      4 H1          0.6890    1.0960    6.9530 hc        1 MOL      0.049812
      5 H2         -0.9910    1.6800    7.0000 hc        1 MOL      0.049812
      6 H3         -0.6380   -0.0410    7.2900 hc        1 MOL      0.049812
      7 N1         -1.7040    0.2000    4.7170 n         1 MOL     -0.619898
      8 C3         -2.1850    0.4140    3.3110 c3        1 MOL      0.153576
      9 C4         -2.6950    1.8540    3.1640 c         1 MOL      0.410486
     10 O2         -3.7380    2.2470    3.7850 o         1 MOL     -0.534626
     11 C5         -3.4220   -0.4610    3.0720 c3        1 MOL     -0.177028
     12 C6         -4.1180   -0.3240    1.6530 c         1 MOL      0.528689
     13 O3         -3.6100    0.4160    0.7330 o         1 MOL     -0.583251
     14 O4         -5.2900   -0.8470    1.4700 o         1 MOL     -0.583251
     15 H4         -2.4120   -0.0350    5.3990 hn        1 MOL      0.318897
     16 H5         -1.3920    0.1360    2.6120 h1        1 MOL     -0.017716
     17 H6         -4.1910   -0.3880    3.8510 hc        1 MOL      0.061116
     18 H7         -3.0910   -1.5000    3.1180 hc        1 MOL      0.061116
     19 N2         -1.8770    2.6330    2.5050 n         1 MOL     -0.166695
     20 C7         -1.9920    4.1000    2.3510 c3        1 MOL     -0.153456
     21 C8         -3.2080    4.6140    1.6280 c         1 MOL      0.620051
     22 O5         -3.4800    5.8170    1.7990 o         1 MOL     -0.586262
     23 C9         -0.7420    4.4750    1.5810 c3        1 MOL     -0.072918
     24 C10        -0.7340    4.4890    0.0170 c3        1 MOL      0.195148
     25 C11         0.6390    5.0570   -0.4390 c3        1 MOL     -0.043089
     26 C12         0.8430    5.0330   -1.9380 c3        1 MOL      0.115366
     27 N3         -0.2010    5.6590   -2.7430 n4        1 MOL     -0.347654
     28 H8         -1.0870    2.1280    2.1220 hn        1 MOL      0.254391
     29 H9         -1.9510    4.5630    3.3380 h1        1 MOL      0.114713
     30 H10         0.0360    3.7950    1.9200 hc        1 MOL      0.036124
     31 H11        -0.3970    5.4740    1.8610 hc        1 MOL      0.036124
     32 H12        -1.5550    5.0990   -0.3560 hc        1 MOL     -0.071773
     33 H13        -0.8380    3.4330   -0.2400 hc        1 MOL     -0.071773
     34 H14         1.4660    4.4610   -0.0500 hc        1 MOL      0.009964
     35 H15         0.7490    6.0780   -0.0890 hc        1 MOL      0.009964
     36 H16         0.9380    3.9570   -2.1450 hx        1 MOL      0.019121
     37 H17         1.7910    5.5250   -2.1680 hx        1 MOL      0.019121
     38 H18        -1.1010    5.2620   -2.4820 hn        1 MOL      0.305353
     39 H19        -0.4150    6.5800   -2.3780 hn        1 MOL      0.305353
     40 H20        -0.1370    5.6510   -3.7540 hn        1 MOL      0.305353
     41 N4         -3.8170    3.8500    0.7780 n         1 MOL     -0.524954
     42 C13        -4.9200    4.3100   -0.0800 c3        1 MOL      0.251262
     43 C14        -6.1410    3.3400   -0.2490 c         1 MOL      0.457412
     44 O6         -7.0270    3.6510   -0.9180 o         1 MOL     -0.510565
     45 C15        -4.3830    4.8100   -1.4330 c3        1 MOL     -0.411785
     46 C16        -3.3630    3.8590   -2.0020 c         1 MOL      1.033514
     47 O7         -2.6310    4.2450   -2.9460 o         1 MOL     -0.795840
     48 O8         -3.2220    2.6780   -1.5260 o         1 MOL     -0.795840
     49 H21        -3.3670    3.0020    0.4870 hn        1 MOL      0.133600
     50 H22        -5.3590    5.1690    0.4370 h1        1 MOL      0.089221
     51 H23        -3.8180    5.6800   -1.0890 hc        1 MOL      0.091061
     52 H24        -5.1220    5.1760   -2.1410 hc        1 MOL      0.091061
     53 N5         -6.2470    2.2660    0.5330 n         1 MOL     -0.372439
     54 C17        -7.4530    1.4610    0.7410 c3        1 MOL     -0.121216
     55 C18        -7.7170    0.5220   -0.4500 c         1 MOL      0.508223
     56 O9         -8.9070    0.1430   -0.5920 o         1 MOL     -0.579455
     57 H25        -5.4100    1.9530    1.0070 hn        1 MOL      0.288696
     58 H26        -8.3380    2.0600    0.9460 h1        1 MOL      0.112235
     59 H27        -7.2800    0.8400    1.6210 h1        1 MOL      0.112235
     60 N6         -6.7680    0.2350   -1.2780 n         1 MOL     -0.279681
     61 C19        -6.9760   -0.7780   -2.3330 c3        1 MOL      0.073635
     62 C20        -7.0640   -2.2570   -1.8420 c         1 MOL      0.335690
     63 O10        -7.6290   -3.1130   -2.5560 o         1 MOL     -0.533889
     64 C21        -5.9150   -0.7550   -3.4710 c3        1 MOL     -0.419362
     65 C22        -4.5440   -0.5590   -2.7880 c         1 MOL      0.858496
     66 O11        -3.7510    0.2390   -3.3200 o         1 MOL     -0.790520
     67 O12        -4.2310   -1.1780   -1.7990 o         1 MOL     -0.790520
     68 H28        -5.8520    0.5660   -1.0000 hn        1 MOL      0.262131
     69 H29        -7.8850   -0.5860   -2.8860 h1        1 MOL      0.102564
     70 H30        -6.1300    0.0740   -4.1510 hc        1 MOL      0.124627
     71 H31        -5.9270   -1.7410   -3.9390 hc        1 MOL      0.124627
     72 N7         -6.4680   -2.5110   -0.6550 n         1 MOL      0.025945
     73 C23        -6.4310   -3.7820   -0.0430 c3        1 MOL     -0.111445
     74 C24        -5.1340   -4.4750   -0.2120 c         1 MOL      0.565353
     75 O13        -5.1060   -5.7330   -0.0620 o         1 MOL     -0.611855
     76 H32        -5.9990   -1.7460   -0.2100 hn        1 MOL      0.058833
     77 H33        -7.1810   -4.4630   -0.4650 h1        1 MOL      0.070591
     78 H34        -6.6000   -3.6750    1.0290 h1        1 MOL      0.070591
     79 N8         -4.0270   -3.8480   -0.5020 n         1 MOL     -0.308442
     80 C25        -2.6540   -4.3730   -0.4580 c3        1 MOL      0.030956
     81 C26        -1.6020   -3.3290    0.0600 c         1 MOL      0.472671
     82 O14        -1.7410   -2.0920    0.0700 o         1 MOL     -0.455810
     83 C27        -2.1710   -4.9480   -1.7780 c3        1 MOL      0.320063
     84 C28        -3.0510   -6.1360   -2.2980 c3        1 MOL     -0.650797
     85 O15        -2.0190   -3.9980   -2.7820 oh        1 MOL     -0.627299
     86 H35        -4.1420   -2.8800   -0.7570 hn        1 MOL      0.225160
     87 H36        -2.6070   -5.1810    0.2610 h1        1 MOL      0.050348
     88 H37        -1.1520   -5.2290   -1.5230 h1        1 MOL      0.020224
     89 H38        -2.8450   -3.9820   -3.2590 ho        1 MOL      0.415601
     90 H39        -4.0020   -5.8470   -2.7340 hc        1 MOL      0.186188
     91 H40        -2.4330   -6.5010   -3.1190 hc        1 MOL      0.186188
     92 H41        -3.0340   -6.9010   -1.5250 hc        1 MOL      0.186188
     93 N9         -0.4530   -3.9660    0.3860 n         1 MOL     -0.478362
     94 C29         0.8170   -3.3470    0.8490 c3        1 MOL      0.039755
     95 C30         2.0260   -3.6320   -0.0770 c         1 MOL      0.514331
     96 O16         2.5330   -4.7540   -0.0840 o         1 MOL     -0.545264
     97 C31         1.0050   -3.7560    2.2710 c3        1 MOL     -0.125557
     98 C32        -0.0360   -3.1000    3.1880 c3        1 MOL      0.289958
     99 C33         2.3810   -3.3940    2.8430 c3        1 MOL     -0.241003
    100 C34        -0.0980   -3.5660    4.6540 c3        1 MOL     -0.200505
    101 H42        -0.4550   -4.9750    0.4000 hn        1 MOL      0.285356
    102 H43         0.6740   -2.2690    0.9290 h1        1 MOL      0.033549
    103 H44         0.9740   -4.8450    2.3300 hc        1 MOL      0.062448
    104 H45        -1.0420   -3.1480    2.7580 hc        1 MOL     -0.039604
    105 H46         0.0480   -2.0120    3.1700 hc        1 MOL     -0.039604
    106 H47         3.2440   -3.6070    2.2080 hc        1 MOL      0.051873
    107 H48         2.4320   -2.3260    3.0380 hc        1 MOL      0.051873
    108 H49         2.5030   -3.9520    3.7620 hc        1 MOL      0.051873
    109 H50        -0.8350   -2.9250    5.1340 hc        1 MOL      0.038164
    110 H51        -0.4720   -4.5830    4.6330 hc        1 MOL      0.038164
    111 H52         0.8520   -3.3240    5.1210 hc        1 MOL      0.038164
    112 N10         2.3660   -2.6610   -0.8390 n         1 MOL     -0.202466
    113 C35         3.5560   -2.5960   -1.7300 c3        1 MOL     -0.133925
    114 C36         4.8320   -2.3490   -0.9500 c         1 MOL      0.390825
    115 O17         4.7490   -2.1230    0.2390 o         1 MOL     -0.324502
    116 C37         3.4030   -1.5100   -2.7840 c3        1 MOL      0.336685
    117 C38         2.1790   -1.5500   -3.6360 c3        1 MOL     -0.505364
    118 O18         3.3030   -0.3570   -2.0430 oh        1 MOL     -0.639074
    119 H53         1.7740   -1.8410   -0.8080 hn        1 MOL      0.245563
    120 H54         3.7830   -3.5700   -2.1590 h1        1 MOL      0.068312
    121 H55         4.3030   -1.4750   -3.3980 h1        1 MOL      0.001809
    122 H56         2.4500   -0.3560   -1.5890 ho        1 MOL      0.370351
    123 H57         2.4130   -2.3620   -4.3300 hc        1 MOL      0.130038
    124 H58         1.3220   -1.5770   -2.9600 hc        1 MOL      0.130038
    125 H59         2.1110   -0.7130   -4.3340 hc        1 MOL      0.130038
    126 N11         5.9890   -2.3770   -1.5800 n         1 MOL     -0.194963
    127 C39         7.3550   -2.4160   -0.9020 c3        1 MOL     -0.178741
    128 C40         7.5770   -1.1050   -0.0870 c         1 MOL      0.544976
    129 O19         7.9320   -1.2190    1.0650 o         1 MOL     -0.489800
    130 C41         8.6320   -2.7050   -1.7490 c3        1 MOL      0.265087
    131 C42         8.4290   -3.9520   -2.6180 c3        1 MOL     -0.300774
    132 O20         8.8480   -1.5920   -2.5670 oh        1 MOL     -0.653877
    133 H60         5.9720   -2.6610   -2.5470 hn        1 MOL      0.232230
    134 H61         7.3090   -3.0650   -0.0250 h1        1 MOL      0.117632
    135 H62         9.5400   -2.8000   -1.1610 h1        1 MOL      0.058275
    136 H63         9.6640   -1.7750   -3.0470 ho        1 MOL      0.417576
    137 H64         9.2570   -4.1430   -3.3040 hc        1 MOL      0.088940
    138 H65         8.3820   -4.8170   -1.9490 hc        1 MOL      0.088940
    139 H66         7.4580   -3.9530   -3.1110 hc        1 MOL      0.088940
    140 N12         7.2350    0.0660   -0.6530 n         1 MOL     -0.404193
    141 C43         7.0870    1.3660    0.1060 c3        1 MOL     -0.010962
    142 C44         6.1110    1.4080    1.2370 c         1 MOL      0.398167
    143 O21         6.3890    2.0890    2.2590 o         1 MOL     -0.500257
    144 C45         6.7690    2.5230   -0.8070 c3        1 MOL     -0.495880
    145 C46         8.0140    3.0530   -1.4410 c3        1 MOL      0.465670
    146 C47         7.6220    4.2060   -2.2510 c3        1 MOL     -0.042810
    147 C48         8.7380    4.4980   -3.2020 c3        1 MOL     -0.027738
    148 N13         9.9340    5.1630   -2.5800 n4        1 MOL     -0.331307
    149 H67         6.7870    0.0680   -1.5600 hn        1 MOL      0.278944
    150 H68         8.0420    1.4750    0.6300 h1        1 MOL      0.106666
    151 H69         6.2990    3.3210   -0.2290 hc        1 MOL      0.144636
    152 H70         6.0260    2.2270   -1.5600 hc        1 MOL      0.144636
    153 H71         8.5460    2.3430   -2.0720 hc        1 MOL     -0.075419
    154 H72         8.7610    3.3830   -0.7110 hc        1 MOL     -0.075419
    155 H73         7.4580    5.0440   -1.5680 hc        1 MOL      0.037986
    156 H74         6.6780    4.0930   -2.7830 hc        1 MOL      0.037986
    157 H75         8.3210    5.2060   -3.9240 hx        1 MOL      0.092775
    158 H76         9.0260    3.6580   -3.8270 hx        1 MOL      0.092775
    159 H77        10.5080    4.6110   -1.9590 hn        1 MOL      0.303403
    160 H78        10.6280    5.3910   -3.2810 hn        1 MOL      0.303403
    161 H79         9.7010    6.0340   -2.1140 hn        1 MOL      0.303403
    162 N14         4.9210    0.8170    1.0860 n         1 MOL     -0.158134
    163 C49         3.9670    0.6260    2.1470 c3        1 MOL     -0.339499
    164 C50         4.5100   -0.2800    3.3280 c         1 MOL      0.504220
    165 O22         4.2390   -0.0790    4.4940 o         1 MOL     -0.514396
    166 C51         2.5490    0.1650    1.6770 c3        1 MOL      0.194774
    167 C52         1.8370    1.1970    0.7910 c3        1 MOL     -0.264945
    168 C53         0.5510    0.7130    0.1460 c         1 MOL      0.621843
    169 O23        -0.5520    1.0910    0.6420 o         1 MOL     -0.611497
    170 O24         0.6060   -0.1450   -0.8030 o         1 MOL     -0.611497
    171 H80         4.8400    0.0590    0.4180 hn        1 MOL      0.164231
    172 H81         3.9820    1.6140    2.6050 h1        1 MOL      0.171168
    173 H82         1.9220   -0.0090    2.5480 hc        1 MOL      0.086487
    174 H83         2.5940   -0.6960    1.0090 hc        1 MOL      0.086487
    175 H84         2.4520    1.4810   -0.0570 hc        1 MOL      0.048865
    176 H85         1.5490    1.9730    1.4990 hc        1 MOL      0.048865
    177 N15         5.3880   -1.2570    2.9940 n         1 MOL     -0.085737
    178 C54         6.0840   -2.0910    4.0430 c3        1 MOL     -0.379804
    179 H86         7.1640   -1.9890    3.9310 h1        1 MOL      0.135015
    180 H87         5.7890   -1.7480    5.0350 h1        1 MOL      0.135015
    181 H88         5.8040   -3.1370    3.9220 h1        1 MOL      0.135015
    182 H89         5.6970   -1.3950    2.0450 hn        1 MOL      0.136556
    183 Ca1        -2.0750    0.4060   -1.3100 Ca        1 MOL      1.749534
    184 O25        -0.6210    2.2040   -2.9690 oh        1 MOL     -0.823477
    185 H90        -1.2110    2.8940   -3.2770 ho        1 MOL      0.395593
    186 H91         0.1490    2.2810   -3.5340 ho        1 MOL      0.395593
    187 O26        -1.2460   -1.3400   -3.1710 oh        1 MOL     -0.823477
    188 H92        -0.8450   -1.3440   -4.0410 ho        1 MOL      0.395593
    189 H93        -1.4290   -2.2570   -2.9850 ho        1 MOL      0.395593
@<TRIPOS>BOND
     1    1    2 1   
     2    1    4 1   
     3    1    5 1   
     4    1    6 1   
     5    2    3 2   
     6    2    7 1   
     7    7    8 1   
     8    7   15 1   
     9    8    9 1   
    10    8   11 1   
    11    8   16 1   
    12    9   10 2   
    13    9   19 1   
    14   11   12 1   
    15   11   17 1   
    16   11   18 1   
    17   12   13 1   
    18   12   14 1   
    19   19   20 1   
    20   19   28 1   
    21   20   21 1   
    22   20   23 1   
    23   20   29 1   
    24   21   22 2   
    25   21   41 1   
    26   23   24 1   
    27   23   30 1   
    28   23   31 1   
    29   24   25 1   
    30   24   32 1   
    31   24   33 1   
    32   25   26 1   
    33   25   34 1   
    34   25   35 1   
    35   26   27 1   
    36   26   36 1   
    37   26   37 1   
    38   27   38 1   
    39   27   39 1   
    40   27   40 1   
    41   41   42 1   
    42   41   49 1   
    43   42   43 1   
    44   42   45 1   
    45   42   50 1   
    46   43   44 2   
    47   43   53 1   
    48   45   46 1   
    49   45   51 1   
    50   45   52 1   
    51   46   47 1   
    52   46   48 1   
    53   53   54 1   
    54   53   57 1   
    55   54   55 1   
    56   54   58 1   
    57   54   59 1   
    58   55   56 2   
    59   55   60 1   
    60   60   61 1   
    61   60   68 1   
    62   61   62 1   
    63   61   64 1   
    64   61   69 1   
    65   62   63 2   
    66   62   72 1   
    67   64   65 1   
    68   64   70 1   
    69   64   71 1   
    70   65   66 1   
    71   65   67 1   
    72   72   73 1   
    73   72   76 1   
    74   73   74 1   
    75   73   77 1   
    76   73   78 1   
    77   74   75 2   
    78   74   79 1   
    79   79   80 1   
    80   79   86 1   
    81   80   81 1   
    82   80   83 1   
    83   80   87 1   
    84   81   82 2   
    85   81   93 1   
    86   83   84 1   
    87   83   85 1   
    88   83   88 1   
    89   84   90 1   
    90   84   91 1   
    91   84   92 1   
    92   85   89 1   
    93   93   94 1   
    94   93  101 1   
    95   94   95 1   
    96   94   97 1   
    97   94  102 1   
    98   95   96 2   
    99   95  112 1   
   100   97   98 1   
   101   97   99 1   
   102   97  103 1   
   103   98  100 1   
   104   98  104 1   
   105   98  105 1   
   106   99  106 1   
   107   99  107 1   
   108   99  108 1   
   109  100  109 1   
   110  100  110 1   
   111  100  111 1   
   112  112  113 1   
   113  112  119 1   
   114  113  114 1   
   115  113  116 1   
   116  113  120 1   
   117  114  115 2   
   118  114  126 1   
   119  116  117 1   
   120  116  118 1   
   121  116  121 1   
   122  117  123 1   
   123  117  124 1   
   124  117  125 1   
   125  118  122 1   
   126  126  127 1   
   127  126  133 1   
   128  127  128 1   
   129  127  130 1   
   130  127  134 1   
   131  128  129 2   
   132  128  140 1   
   133  130  131 1   
   134  130  132 1   
   135  130  135 1   
   136  131  137 1   
   137  131  138 1   
   138  131  139 1   
   139  132  136 1   
   140  140  141 1   
   141  140  149 1   
   142  141  142 1   
   143  141  144 1   
   144  141  150 1   
   145  142  143 2   
   146  142  162 1   
   147  144  145 1   
   148  144  151 1   
   149  144  152 1   
   150  145  146 1   
   151  145  153 1   
   152  145  154 1   
   153  146  147 1   
   154  146  155 1   
   155  146  156 1   
   156  147  148 1   
   157  147  157 1   
   158  147  158 1   
   159  148  159 1   
   160  148  160 1   
   161  148  161 1   
   162  162  163 1   
   163  162  171 1   
   164  163  164 1   
   165  163  166 1   
   166  163  172 1   
   167  164  165 2   
   168  164  177 1   
   169  166  167 1   
   170  166  173 1   
   171  166  174 1   
   172  167  168 1   
   173  167  175 1   
   174  167  176 1   
   175  168  169 1   
   176  168  170 1   
   177  177  178 1   
   178  177  182 1   
   179  178  179 1   
   180  178  180 1   
   181  178  181 1   
   182  184  185 1   
   183  184  186 1   
   184  187  188 1   
   185  187  189 1   
@<TRIPOS>SUBSTRUCTURE
     1 MOL         1 TEMP              0 ****  ****    0 ROOT
