@<TRIPOS>MOLECULE
MOL
  186   183     1     0     0
SMALL
resp


@<TRIPOS>ATOM
      1 C1          0.6700   -1.3000    6.2720 c3        1 MOL     -0.323857
      2 C2          0.8930   -1.3260    4.7750 c         1 MOL      0.713180
      3 O1         -0.0660   -1.6270    4.0520 o         1 MOL     -0.545034
      4 H1         -0.0890   -0.5560    6.5120 hc        1 MOL      0.068463
      5 H2          0.3340   -2.2820    6.6060 hc        1 MOL      0.068463
      6 H3          1.6020   -1.0430    6.7740 hc        1 MOL      0.068463
      7 N1          2.1500   -0.9880    4.4250 n         1 MOL     -0.578023
      8 C3          2.6510   -1.2590    3.0520 c3        1 MOL      0.139698
      9 C4          3.0420   -2.7550    2.8460 c         1 MOL      0.471217
     10 O2          3.8480   -3.3370    3.5230 o         1 MOL     -0.578223
     11 C5          3.7590   -0.2520    2.8640 c3        1 MOL     -0.416488
     12 C6          4.4960   -0.5250    1.5830 c         1 MOL      0.827599
     13 O3          5.6290   -0.0030    1.5180 o         1 MOL     -0.653732
     14 O4          3.9140   -1.0230    0.5690 o         1 MOL     -0.653732
     15 H4          2.8490   -0.7360    5.1140 hn        1 MOL      0.340693
     16 H5          1.9460   -0.8200    2.3470 h1        1 MOL     -0.005152
     17 H6          4.4500   -0.4110    3.6840 hc        1 MOL      0.092258
     18 H7          3.4650    0.7840    3.0150 hc        1 MOL      0.092258
     19 N2          2.4790   -3.4370    1.8580 n         1 MOL     -0.009591
     20 C7          2.6000   -4.9440    1.7410 c3        1 MOL     -0.338641
     21 C8          3.5070   -5.2840    0.5420 c         1 MOL      0.638215
     22 O5          4.2440   -6.2920    0.5470 o         1 MOL     -0.608441
     23 C9          1.1500   -5.4690    1.5290 c3        1 MOL      0.388567
     24 C10         0.1750   -5.1500    2.7410 c3        1 MOL      0.013655
     25 C11         1.1280   -7.0380    1.3390 c3        1 MOL     -0.393424
     26 C12        -1.2360   -5.6610    2.4130 c3        1 MOL      0.020001
     27 H8          1.7880   -2.9430    1.3070 hn        1 MOL      0.042817
     28 H9          3.1070   -5.4370    2.5670 h1        1 MOL      0.127630
     29 H10         0.7240   -4.9040    0.6930 hc        1 MOL     -0.046933
     30 H11         0.1930   -4.0770    2.8800 hc        1 MOL     -0.036521
     31 H12         0.5490   -5.6260    3.6490 hc        1 MOL     -0.036521
     32 H13         1.9550   -7.2780    0.6720 hc        1 MOL      0.074997
     33 H14         1.1770   -7.5260    2.3090 hc        1 MOL      0.074997
     34 H15         0.1810   -7.2810    0.8550 hc        1 MOL      0.074997
     35 H16        -1.4470   -6.6640    2.7950 hc        1 MOL     -0.010630
     36 H17        -2.0450   -5.0740    2.8530 hc        1 MOL     -0.010630
     37 H18        -1.4090   -5.6880    1.3360 hc        1 MOL     -0.010630
     38 N3          3.5520   -4.3900   -0.4230 n         1 MOL     -0.385057
     39 C13         4.4250   -4.5270   -1.6270 c3        1 MOL     -0.072795
     40 C14         5.7420   -3.6840   -1.6770 c         1 MOL      0.435458
     41 O6          6.6400   -3.8610   -2.4330 o         1 MOL     -0.534448
     42 C15         3.5800   -4.3590   -2.9220 c3        1 MOL     -0.110277
     43 C16         2.8180   -3.0630   -3.1250 c         1 MOL      0.708478
     44 O7          3.2470   -2.0480   -2.5120 o         1 MOL     -0.687125
     45 O8          1.7180   -3.1530   -3.7130 o         1 MOL     -0.687125
     46 H19         2.8290   -3.6880   -0.5160 hn        1 MOL      0.364405
     47 H20         4.7000   -5.5800   -1.7440 h1        1 MOL      0.100375
     48 H21         2.8750   -5.1870   -2.8230 hc        1 MOL      0.027082
     49 H22         4.2720   -4.5780   -3.7340 hc        1 MOL      0.027082
     50 N4          5.9470   -2.8030   -0.7090 n         1 MOL     -0.037150
     51 C17         7.2130   -2.1530   -0.3070 c3        1 MOL     -0.171085
     52 C18         7.6160   -0.9650   -1.1440 c         1 MOL      0.677681
     53 O9          8.6610   -1.0280   -1.8010 o         1 MOL     -0.642731
     54 H23         5.0880   -2.5960   -0.2110 hn        1 MOL      0.027658
     55 H24         8.0250   -2.8750   -0.2640 h1        1 MOL      0.064990
     56 H25         7.1000   -1.7570    0.7030 h1        1 MOL      0.064990
     57 N5          6.8950    0.1170   -1.1640 n         1 MOL     -0.412873
     58 C19         7.1320    1.3840   -1.9970 c3        1 MOL      0.168921
     59 C20         7.1380    2.6180   -1.0750 c         1 MOL      0.368602
     60 O10         7.1940    3.7960   -1.4530 o         1 MOL     -0.532493
     61 C21         6.0220    1.5220   -3.0550 c3        1 MOL     -0.314861
     62 C22         4.6040    1.3710   -2.4590 c         1 MOL      0.834469
     63 O11         3.6890    1.0200   -3.1600 o         1 MOL     -0.734040
     64 O12         4.4000    1.5520   -1.2210 o         1 MOL     -0.734040
     65 H26         6.0540    0.0240   -0.6190 hn        1 MOL      0.130985
     66 H27         8.0910    1.3410   -2.5110 h1        1 MOL      0.079355
     67 H28         6.2500    0.6810   -3.7190 hc        1 MOL      0.082018
     68 H29         6.1830    2.4460   -3.6170 hc        1 MOL      0.082018
     69 N6          7.1710    2.4050    0.2810 n         1 MOL     -0.350614
     70 C23         7.1500    3.4500    1.2890 c3        1 MOL      0.077847
     71 C24         5.8280    4.2060    1.2810 c         1 MOL      0.413621
     72 O13         5.8260    5.3400    1.8050 o         1 MOL     -0.588053
     73 H30         6.9870    1.4370    0.5250 hn        1 MOL      0.217148
     74 H31         8.0780    4.0140    1.2360 h1        1 MOL      0.051105
     75 H32         7.2320    3.0420    2.3030 h1        1 MOL      0.051105
     76 N7          4.7360    3.6420    0.7930 n         1 MOL     -0.213222
     77 C25         3.4190    4.3330    0.9380 c3        1 MOL      0.001149
     78 C26         2.2560    3.3260    0.9780 c         1 MOL      0.465699
     79 O14         2.4540    2.1490    0.7170 o         1 MOL     -0.533584
     80 C27         3.2170    5.3020   -0.2090 c3        1 MOL      0.011510
     81 C28         4.0770    6.5450   -0.2770 c3        1 MOL     -0.250077
     82 C29         3.6510    7.6080   -1.2740 c         1 MOL      0.588962
     83 N8          4.0190    7.4620   -2.4950 n         1 MOL     -0.706731
     84 O15         2.7870    8.4730   -1.0000 o         1 MOL     -0.588240
     85 H33         4.6860    2.8040    0.2320 hn        1 MOL      0.235087
     86 H34         3.3150    4.8820    1.8720 h1        1 MOL      0.087586
     87 H35         2.1740    5.6210   -0.2330 hc        1 MOL      0.048436
     88 H36         3.2920    4.7700   -1.1520 hc        1 MOL      0.048436
     89 H37         5.1250    6.2890   -0.4400 hc        1 MOL      0.090675
     90 H38         4.2130    7.0640    0.6780 hc        1 MOL      0.090675
     91 H39         4.4820    6.6400   -2.8380 hn        1 MOL      0.337282
     92 H40         3.8450    8.2420   -3.1100 hn        1 MOL      0.337282
     93 N9          1.0730    3.6970    1.4920 n         1 MOL     -0.478017
     94 C30        -0.1450    2.9130    1.6620 c3        1 MOL      0.367012
     95 C31        -1.2230    3.5060    0.7770 c         1 MOL      0.287018
     96 O16        -1.4530    4.7180    0.7810 o         1 MOL     -0.535823
     97 C32        -0.5910    2.8360    3.1110 c3        1 MOL      0.298438
     98 C33        -1.6760    1.7640    3.2610 c3        1 MOL     -0.369455
     99 C34         0.5520    2.5930    4.1300 c3        1 MOL     -0.369455
    100 H41         1.0110    4.6440    1.8290 hn        1 MOL      0.235122
    101 H42         0.0260    1.8960    1.3170 h1        1 MOL      0.015652
    102 H43        -1.0600    3.7850    3.3620 hc        1 MOL     -0.059812
    103 H44        -1.8360    1.6410    4.3350 hc        1 MOL      0.081864
    104 H45        -2.5560    2.1080    2.7200 hc        1 MOL      0.081864
    105 H46        -1.3410    0.8430    2.7870 hc        1 MOL      0.081864
    106 H47         1.0250    1.6320    3.9650 hc        1 MOL      0.081864
    107 H48         1.3030    3.3740    4.0250 hc        1 MOL      0.081864
    108 H49         0.2990    2.6380    5.1850 hc        1 MOL      0.081864
    109 N10        -1.9850    2.6260    0.0790 n         1 MOL     -0.249876
    110 C35        -3.0760    2.8620   -0.9290 c3        1 MOL      0.443115
    111 C36        -4.4080    2.2470   -0.3820 c         1 MOL      0.162113
    112 O17        -4.3890    1.4550    0.5880 o         1 MOL     -0.244959
    113 C37        -2.6360    2.4960   -2.2780 c3        1 MOL     -0.526647
    114 C38        -2.9750    1.0650   -2.6730 c         1 MOL      0.753749
    115 N11        -2.1080    0.1810   -2.4720 n         1 MOL     -0.806334
    116 O18        -4.0640    0.7860   -3.1650 o         1 MOL     -0.629689
    117 H50        -1.6790    1.6680    0.1900 hn        1 MOL      0.068845
    118 H51        -3.2310    3.9430   -0.9410 h1        1 MOL     -0.002604
    119 H52        -1.5830    2.7180   -2.4400 hc        1 MOL      0.146085
    120 H53        -3.2470    3.1280   -2.9130 hc        1 MOL      0.146085
    121 H54        -1.3290    0.3640   -1.8640 hn        1 MOL      0.394572
    122 H55        -2.2500   -0.7570   -2.8120 hn        1 MOL      0.394572
    123 N12        -5.5330    2.3780   -1.0940 n         1 MOL     -0.400053
    124 C39        -6.9060    1.9950   -0.6920 c3        1 MOL      0.116872
    125 C40        -7.0960    0.4420   -0.6120 c         1 MOL      0.629629
    126 O19        -7.6780   -0.1220    0.3320 o         1 MOL     -0.540248
    127 C41        -8.0010    2.5630   -1.6730 c3        1 MOL     -0.214518
    128 C42        -9.3480    2.2770   -0.9300 ca        1 MOL      0.036629
    129 C43        -9.5710    3.0610    0.2290 ca        1 MOL     -0.187499
    130 C44       -10.3120    1.3830   -1.3340 ca        1 MOL     -0.187499
    131 C45       -10.7030    2.9560    1.0670 ca        1 MOL     -0.252939
    132 C46       -11.5450    1.3460   -0.6140 ca        1 MOL     -0.252939
    133 C47       -11.7230    2.0990    0.6040 ca        1 MOL      0.336060
    134 O20       -12.8690    2.1390    1.2430 oh        1 MOL     -0.451498
    135 H56        -5.4790    2.9010   -1.9600 hn        1 MOL      0.262650
    136 H57        -7.0510    2.4470    0.2890 h1        1 MOL      0.081095
    137 H58        -7.9490    2.0330   -2.6260 hc        1 MOL      0.086037
    138 H59        -7.8680    3.6380   -1.7020 hc        1 MOL      0.086037
    139 H60        -8.8110    3.7890    0.4560 ha        1 MOL      0.154668
    140 H61       -10.1560    0.6760   -2.1310 ha        1 MOL      0.154668
    141 H62       -10.9380    3.6240    1.8910 ha        1 MOL      0.142734
    142 H63       -12.3020    0.7470   -1.0890 ha        1 MOL      0.142734
    143 H64       -13.3550    1.4330    0.8080 ho        1 MOL      0.332764
    144 N13        -6.4570   -0.3350   -1.4990 n         1 MOL     -0.504631
    145 C48        -6.1750   -1.7860   -1.4630 c3        1 MOL      0.127178
    146 C49        -5.4190   -2.4150   -0.2170 c         1 MOL      0.208352
    147 O21        -5.7790   -3.4680    0.3190 o         1 MOL     -0.495513
    148 C50        -5.6880   -2.2830   -2.7940 c3        1 MOL     -0.044564
    149 C51        -5.6450   -3.8230   -2.8410 c3        1 MOL     -0.336871
    150 C52        -5.0510   -4.2220   -4.2420 c         1 MOL      0.789251
    151 O22        -3.9680   -4.7770   -4.3570 o         1 MOL     -0.757414
    152 O23        -5.7870   -4.0120   -5.2060 o         1 MOL     -0.757414
    153 H65        -5.8390    0.1320   -2.1550 hn        1 MOL      0.273780
    154 H66        -7.1280   -2.3040   -1.3950 h1        1 MOL      0.076781
    155 H67        -4.7400   -1.7900   -3.0200 hc        1 MOL      0.036695
    156 H68        -6.4050   -1.9140   -3.5250 hc        1 MOL      0.036695
    157 H69        -6.6010   -4.3440   -2.7310 hc        1 MOL      0.071142
    158 H70        -4.9370   -4.1780   -2.0810 hc        1 MOL      0.071142
    159 N14        -4.4370   -1.6810    0.3070 n         1 MOL      0.037449
    160 C53        -3.7550   -1.9470    1.5250 c3        1 MOL      0.010428
    161 C54        -4.3330   -1.2740    2.7450 c         1 MOL      0.399880
    162 O24        -4.2360   -1.8810    3.8330 o         1 MOL     -0.567700
    163 C55        -2.3370   -1.5340    1.3500 c3        1 MOL      0.042000
    164 C56        -1.4990   -2.3730    0.3500 c3        1 MOL     -0.003857
    165 C57        -0.1160   -1.7750    0.0270 c         1 MOL      0.766028
    166 O25         0.8060   -2.5470   -0.2290 o         1 MOL     -0.715162
    167 O26         0.0650   -0.5530   -0.1240 o         1 MOL     -0.715162
    168 H71        -4.2690   -0.8070   -0.1510 hn        1 MOL      0.130580
    169 H72        -3.7990   -3.0250    1.6620 h1        1 MOL      0.080549
    170 H73        -1.8230   -1.4730    2.3110 hc        1 MOL      0.010460
    171 H74        -2.3990   -0.4920    1.0320 hc        1 MOL      0.010460
    172 H75        -2.1210   -2.4490   -0.5500 hc        1 MOL     -0.019810
    173 H76        -1.3780   -3.3380    0.8280 hc        1 MOL     -0.019810
    174 N15        -5.1230   -0.2300    2.5820 n         1 MOL     -0.010374
    175 C58        -5.7990    0.5010    3.6610 c3        1 MOL     -0.294623
    176 H77        -5.8790    1.5530    3.3910 h1        1 MOL      0.097927
    177 H78        -6.7970    0.0870    3.8110 h1        1 MOL      0.097927
    178 H79        -5.2230    0.4040    4.5820 h1        1 MOL      0.097927
    179 H80        -5.2490    0.1360    1.6470 hn        1 MOL     -0.014042
    180 Ca1         2.3550   -0.0110   -1.1430 Ca        1 MOL      1.678482
    181 O27         0.6150   -0.8650   -3.1640 oh        1 MOL     -0.884822
    182 H81        -0.1420   -0.7110   -3.7210 ho        1 MOL      0.418921
    183 H82         0.8490   -1.7760   -3.3270 ho        1 MOL      0.418921
    184 O28         1.3570    2.1590   -2.0810 oh        1 MOL     -0.884822
    185 H83         1.7770    3.0130   -2.0480 ho        1 MOL      0.418921
    186 H84         0.8830    2.1530   -2.9060 ho        1 MOL      0.418921
@<TRIPOS>BOND
     1    1    2 1   
     2    1    4 1   
     3    1    5 1   
     4    1    6 1   
     5    2    3 2   
     6    2    7 1   
     7    7    8 1   
     8    7   15 1   
     9    8    9 1   
    10    8   11 1   
    11    8   16 1   
    12    9   10 2   
    13    9   19 1   
    14   11   12 1   
    15   11   17 1   
    16   11   18 1   
    17   12   13 1   
    18   12   14 1   
    19   19   20 1   
    20   19   27 1   
    21   20   21 1   
    22   20   23 1   
    23   20   28 1   
    24   21   22 2   
    25   21   38 1   
    26   23   24 1   
    27   23   25 1   
    28   23   29 1   
    29   24   26 1   
    30   24   30 1   
    31   24   31 1   
    32   25   32 1   
    33   25   33 1   
    34   25   34 1   
    35   26   35 1   
    36   26   36 1   
    37   26   37 1   
    38   38   39 1   
    39   38   46 1   
    40   39   40 1   
    41   39   42 1   
    42   39   47 1   
    43   40   41 2   
    44   40   50 1   
    45   42   43 1   
    46   42   48 1   
    47   42   49 1   
    48   43   44 1   
    49   43   45 1   
    50   50   51 1   
    51   50   54 1   
    52   51   52 1   
    53   51   55 1   
    54   51   56 1   
    55   52   53 2   
    56   52   57 1   
    57   57   58 1   
    58   57   65 1   
    59   58   59 1   
    60   58   61 1   
    61   58   66 1   
    62   59   60 2   
    63   59   69 1   
    64   61   62 1   
    65   61   67 1   
    66   61   68 1   
    67   62   63 1   
    68   62   64 1   
    69   69   70 1   
    70   69   73 1   
    71   70   71 1   
    72   70   74 1   
    73   70   75 1   
    74   71   72 2   
    75   71   76 1   
    76   76   77 1   
    77   76   85 1   
    78   77   78 1   
    79   77   80 1   
    80   77   86 1   
    81   78   79 2   
    82   78   93 1   
    83   80   81 1   
    84   80   87 1   
    85   80   88 1   
    86   81   82 1   
    87   81   89 1   
    88   81   90 1   
    89   82   83 1   
    90   82   84 2   
    91   83   91 1   
    92   83   92 1   
    93   93   94 1   
    94   93  100 1   
    95   94   95 1   
    96   94   97 1   
    97   94  101 1   
    98   95   96 2   
    99   95  109 1   
   100   97   98 1   
   101   97   99 1   
   102   97  102 1   
   103   98  103 1   
   104   98  104 1   
   105   98  105 1   
   106   99  106 1   
   107   99  107 1   
   108   99  108 1   
   109  109  110 1   
   110  109  117 1   
   111  110  111 1   
   112  110  113 1   
   113  110  118 1   
   114  111  112 2   
   115  111  123 1   
   116  113  114 1   
   117  113  119 1   
   118  113  120 1   
   119  114  115 1   
   120  114  116 2   
   121  115  121 1   
   122  115  122 1   
   123  123  124 1   
   124  123  135 1   
   125  124  125 1   
   126  124  127 1   
   127  124  136 1   
   128  125  126 2   
   129  125  144 1   
   130  127  128 1   
   131  127  137 1   
   132  127  138 1   
   133  128  129 ar  
   134  128  130 ar  
   135  129  131 ar  
   136  129  139 1   
   137  130  132 ar  
   138  130  140 1   
   139  131  133 ar  
   140  131  141 1   
   141  132  133 ar  
   142  132  142 1   
   143  133  134 1   
   144  134  143 1   
   145  144  145 1   
   146  144  153 1   
   147  145  146 1   
   148  145  148 1   
   149  145  154 1   
   150  146  147 2   
   151  146  159 1   
   152  148  149 1   
   153  148  155 1   
   154  148  156 1   
   155  149  150 1   
   156  149  157 1   
   157  149  158 1   
   158  150  151 1   
   159  150  152 1   
   160  159  160 1   
   161  159  168 1   
   162  160  161 1   
   163  160  163 1   
   164  160  169 1   
   165  161  162 2   
   166  161  174 1   
   167  163  164 1   
   168  163  170 1   
   169  163  171 1   
   170  164  165 1   
   171  164  172 1   
   172  164  173 1   
   173  165  166 1   
   174  165  167 1   
   175  174  175 1   
   176  174  179 1   
   177  175  176 1   
   178  175  177 1   
   179  175  178 1   
   180  181  182 1   
   181  181  183 1   
   182  184  185 1   
   183  184  186 1   
@<TRIPOS>SUBSTRUCTURE
     1 MOL         1 TEMP              0 ****  ****    0 ROOT
