@<TRIPOS>MOLECULE
MOL
  189   185     1     0     0
SMALL
resp


@<TRIPOS>ATOM
      1 C1         -0.2230    2.4130    6.1920 c3        1 MOL     -0.383759
      2 C2         -0.6150    2.2830    4.7020 c         1 MOL      0.694939
      3 O1          0.2260    2.4480    3.8260 o         1 MOL     -0.620712
      4 H1          0.6370    3.0780    6.2850 hc        1 MOL      0.098318
      5 H2         -1.0620    2.8250    6.7550 hc        1 MOL      0.098318
      6 H3          0.0340    1.4310    6.5880 hc        1 MOL      0.098318
      7 N1         -1.8750    1.9900    4.3890 n         1 MOL     -0.606808
      8 C3         -2.4090    2.0030    2.9770 c3        1 MOL      0.174864
      9 C4         -2.4490    3.4450    2.4480 c         1 MOL      0.462374
     10 O2         -3.3410    4.2530    2.7460 o         1 MOL     -0.530257
     11 C5         -3.8030    1.3680    3.0140 c3        1 MOL     -0.094084
     12 C6         -4.4120    0.9980    1.6440 c         1 MOL      0.785794
     13 O3         -3.7200    1.0830    0.6090 o         1 MOL     -0.670593
     14 O4         -5.5660    0.5390    1.6830 o         1 MOL     -0.670593
     15 H4         -2.4100    1.5470    5.1270 hn        1 MOL      0.332901
     16 H5         -1.7110    1.4210    2.3780 h1        1 MOL     -0.038665
     17 H6         -4.4700    2.0160    3.5860 hc        1 MOL      0.013897
     18 H7         -3.7310    0.4900    3.6510 hc        1 MOL      0.013897
     19 N2         -1.4930    3.7730    1.5410 n         1 MOL     -0.188870
     20 C7         -1.1850    5.1640    0.9410 c3        1 MOL     -0.020726
     21 C8         -2.1280    5.4750   -0.1300 c         1 MOL      0.496948
     22 O5         -2.7020    6.5510   -0.1470 o         1 MOL     -0.553271
     23 C9          0.2690    5.1640    0.4190 c3        1 MOL     -0.214696
     24 C10         1.2570    5.0620    1.6280 c3        1 MOL      0.139855
     25 C11         2.7540    4.9600    1.1390 c3        1 MOL     -0.000270
     26 C12         3.6620    5.3830    2.2950 c3        1 MOL      0.157350
     27 N3          5.0740    5.0510    1.9980 n4        1 MOL     -0.442552
     28 H8         -0.9080    2.9800    1.3020 hn        1 MOL      0.249387
     29 H9         -1.4640    5.9750    1.6120 h1        1 MOL      0.073015
     30 H10         0.4300    6.1050   -0.1150 hc        1 MOL      0.075360
     31 H11         0.3640    4.3340   -0.2770 hc        1 MOL      0.075360
     32 H12         0.9830    4.1720    2.1850 hc        1 MOL     -0.018641
     33 H13         1.2000    6.0130    2.1670 hc        1 MOL     -0.018641
     34 H14         2.9420    5.5970    0.2830 hc        1 MOL     -0.016233
     35 H15         2.8350    3.9090    0.8490 hc        1 MOL     -0.016233
     36 H16         3.3580    5.0460    3.2830 hx        1 MOL      0.053467
     37 H17         3.6500    6.4710    2.3840 hx        1 MOL      0.053467
     38 H18         5.6980    5.3440    2.7460 hn        1 MOL      0.332474
     39 H19         5.2240    4.0520    1.9980 hn        1 MOL      0.332474
     40 H20         5.3270    5.4640    1.1170 hn        1 MOL      0.332474
     41 N4         -2.4670    4.5370   -1.0750 n         1 MOL     -0.287654
     42 C13        -3.2300    4.6590   -2.3370 c3        1 MOL     -0.007540
     43 C14        -4.5710    4.0650   -2.1920 c         1 MOL      0.491995
     44 O6         -5.4280    4.3540   -3.0340 o         1 MOL     -0.517083
     45 C15        -2.3660    4.0870   -3.4500 c3        1 MOL     -0.200177
     46 C16        -2.0080    2.6490   -3.3060 c         1 MOL      0.786069
     47 O7         -1.4110    2.0800   -4.2350 o         1 MOL     -0.690641
     48 O8         -2.1110    2.0290   -2.2070 o         1 MOL     -0.690641
     49 H21        -2.0250    3.6330   -0.9670 hn        1 MOL      0.136515
     50 H22        -3.3920    5.7200   -2.5220 h1        1 MOL      0.088856
     51 H23        -1.4560    4.6810   -3.5580 hc        1 MOL      0.055331
     52 H24        -2.9550    4.1890   -4.3650 hc        1 MOL      0.055331
     53 N5         -4.8360    3.3130   -1.0920 n         1 MOL     -0.109024
     54 C17        -6.2350    3.0110   -0.6320 c3        1 MOL     -0.155278
     55 C18        -6.8350    1.9000   -1.4430 c         1 MOL      0.552892
     56 O9         -7.5430    2.1890   -2.3800 o         1 MOL     -0.521669
     57 H25        -4.1050    3.1280   -0.4220 hn        1 MOL      0.134050
     58 H26        -6.8030    3.9180   -0.8310 h1        1 MOL      0.075788
     59 H27        -6.2820    2.7520    0.4260 h1        1 MOL      0.075788
     60 N6         -6.4760    0.6320   -1.1990 n         1 MOL     -0.240027
     61 C19        -7.0570   -0.5470   -1.8570 c3        1 MOL      0.026827
     62 C20        -7.3980   -1.7430   -0.9560 c         1 MOL      0.326904
     63 O10        -8.0850   -2.6480   -1.4260 o         1 MOL     -0.517035
     64 C21        -6.0480   -0.9810   -2.9470 c3        1 MOL     -0.083838
     65 C22        -4.6000   -0.9800   -2.5420 c         1 MOL      0.693236
     66 O11        -4.3280   -1.4000   -1.4090 o         1 MOL     -0.719966
     67 O12        -3.7170   -0.3960   -3.1860 o         1 MOL     -0.719966
     68 H28        -5.7200    0.5190   -0.5350 hn        1 MOL     -0.004657
     69 H29        -7.9830   -0.2350   -2.3300 h1        1 MOL      0.084877
     70 H30        -6.1280   -0.4310   -3.8830 hc        1 MOL      0.022917
     71 H31        -6.2060   -2.0370   -3.1390 hc        1 MOL      0.022917
     72 N7         -7.0050   -1.6660    0.3040 n         1 MOL     -0.037472
     73 C23        -7.1230   -2.7530    1.3240 c3        1 MOL     -0.457625
     74 C24        -6.0130   -3.7520    1.3070 c         1 MOL      0.689933
     75 O13        -6.1690   -4.7580    1.9750 o         1 MOL     -0.571452
     76 H32        -6.7680   -0.7580    0.6810 hn        1 MOL      0.205390
     77 H33        -8.0010   -3.3550    1.1000 h1        1 MOL      0.173389
     78 H34        -7.0970   -2.2820    2.3070 h1        1 MOL      0.173389
     79 N8         -4.8700   -3.5730    0.5570 n         1 MOL     -0.415736
     80 C25        -3.6960   -4.4520    0.7570 c3        1 MOL     -0.188158
     81 C26        -2.4530   -3.5540    0.8030 c         1 MOL      0.873256
     82 O14        -2.5550   -2.3400    0.5540 o         1 MOL     -0.706736
     83 C27        -3.4550   -5.4780   -0.4200 c3        1 MOL      0.378192
     84 C28        -4.4030   -6.6890   -0.4850 c3        1 MOL     -0.491064
     85 O15        -3.5440   -4.7610   -1.6720 oh        1 MOL     -0.637904
     86 H35        -4.8050   -2.8050   -0.1020 hn        1 MOL      0.315190
     87 H36        -3.8090   -4.9850    1.7040 h1        1 MOL      0.090430
     88 H37        -2.4510   -5.8750   -0.2940 h1        1 MOL      0.047727
     89 H38        -4.4040   -4.3260   -1.7040 ho        1 MOL      0.430250
     90 H39        -3.9340   -7.3290   -1.2280 hc        1 MOL      0.133456
     91 H40        -4.5140   -7.2030    0.4740 hc        1 MOL      0.133456
     92 H41        -5.3750   -6.3530   -0.8470 hc        1 MOL      0.133456
     93 N9         -1.3050   -4.1820    1.1660 n         1 MOL     -0.641948
     94 C29         0.0510   -3.6020    1.3230 c3        1 MOL      0.230429
     95 C30         1.0360   -4.1280    0.2260 c         1 MOL      0.444706
     96 O16         1.1260   -5.3250   -0.0090 o         1 MOL     -0.543454
     97 C31         0.5520   -3.8090    2.8200 c3        1 MOL      0.031594
     98 C32        -0.3570   -3.2440    3.9700 c3        1 MOL     -0.011544
     99 C33         2.0410   -3.5070    3.1800 c3        1 MOL     -0.085290
    100 C34        -0.3730   -1.7130    4.0680 c3        1 MOL     -0.146793
    101 H42        -1.3350   -5.1860    1.1130 hn        1 MOL      0.267521
    102 H43         0.0600   -2.5180    1.2050 h1        1 MOL     -0.047233
    103 H44         0.3670   -4.8690    2.9890 hc        1 MOL      0.012312
    104 H45        -0.1190   -3.7340    4.9080 hc        1 MOL      0.022140
    105 H46        -1.3980   -3.4820    3.7300 hc        1 MOL      0.022140
    106 H47         2.6300   -4.0830    2.4660 hc        1 MOL      0.003764
    107 H48         2.4400   -2.4960    3.1970 hc        1 MOL      0.003764
    108 H49         2.2420   -3.9920    4.1450 hc        1 MOL      0.003764
    109 H50         0.5740   -1.2700    4.3960 hc        1 MOL      0.051613
    110 H51        -0.5430   -1.2640    3.0840 hc        1 MOL      0.051613
    111 H52        -1.1670   -1.3550    4.7190 hc        1 MOL      0.051613
    112 N10         1.8290   -3.2310   -0.3800 n         1 MOL     -0.049795
    113 C35         2.9900   -3.3720   -1.3100 c3        1 MOL     -0.043505
    114 C36         4.2950   -2.8730   -0.5840 c         1 MOL      0.174243
    115 O17         4.2510   -2.3190    0.5110 o         1 MOL     -0.108135
    116 C37         2.6490   -2.7760   -2.6880 c3        1 MOL      0.379773
    117 C38         1.4580   -3.4190   -3.3350 c3        1 MOL     -0.486573
    118 O18         2.4820   -1.3840   -2.5210 oh        1 MOL     -0.614749
    119 H53         1.8220   -2.2980    0.0070 hn        1 MOL      0.003941
    120 H54         3.1310   -4.4430   -1.4790 h1        1 MOL      0.055531
    121 H55         3.5040   -2.8880   -3.3430 h1        1 MOL     -0.009261
    122 H56         1.5520   -1.2940   -2.3150 ho        1 MOL      0.408183
    123 H57         1.2980   -2.9220   -4.2950 hc        1 MOL      0.131926
    124 H58         1.5970   -4.4940   -3.3820 hc        1 MOL      0.131926
    125 H59         0.6050   -3.2890   -2.6590 hc        1 MOL      0.131926
    126 N11         5.4660   -3.1650   -1.2570 n         1 MOL     -0.103905
    127 C39         6.8160   -3.0000   -0.6760 c3        1 MOL     -0.439468
    128 C40         6.9310   -1.5870   -0.1030 c         1 MOL      0.455871
    129 O19         7.3930   -1.3590    1.0210 o         1 MOL     -0.478018
    130 C41         7.9950   -3.2950   -1.5740 c3        1 MOL      0.519986
    131 C42         8.3100   -4.7410   -1.7190 c3        1 MOL     -0.332940
    132 O20         7.8770   -2.6570   -2.8500 oh        1 MOL     -0.672218
    133 H60         5.4910   -3.5580   -2.1890 hn        1 MOL      0.177159
    134 H61         6.8720   -3.7000    0.1560 h1        1 MOL      0.195306
    135 H62         8.8500   -2.9160   -1.0050 h1        1 MOL      0.063533
    136 H63         7.1250   -3.0550   -3.2850 ho        1 MOL      0.414764
    137 H64         9.2490   -4.9030   -2.2500 hc        1 MOL      0.086538
    138 H65         8.3190   -5.1330   -0.7040 hc        1 MOL      0.086538
    139 H66         7.4400   -5.2250   -2.1750 hc        1 MOL      0.086538
    140 N12         6.5610   -0.5400   -0.8780 n         1 MOL     -0.377083
    141 C43         6.6860    0.8700   -0.4490 c3        1 MOL     -0.023817
    142 C44         5.8440    1.2000    0.7570 c         1 MOL      0.400408
    143 O21         6.1690    2.0990    1.5160 o         1 MOL     -0.592863
    144 C45         6.2860    1.8870   -1.5790 c3        1 MOL     -0.441438
    145 C46         7.1340    1.7840   -2.8320 c3        1 MOL      0.569025
    146 C47         6.7830    2.8280   -3.8240 c3        1 MOL     -0.055858
    147 C48         7.9820    3.0180   -4.8050 c3        1 MOL     -0.187073
    148 N13         9.2480    3.4750   -4.0880 n4        1 MOL     -0.299241
    149 H67         6.0880   -0.7600   -1.7340 hn        1 MOL      0.274167
    150 H68         7.6790    1.0870   -0.0610 h1        1 MOL      0.139742
    151 H69         6.3240    2.9120   -1.1880 hc        1 MOL      0.097706
    152 H70         5.2780    1.6100   -1.8990 hc        1 MOL      0.097706
    153 H71         7.0240    0.8010   -3.2780 hc        1 MOL     -0.111100
    154 H72         8.1520    1.8850   -2.4710 hc        1 MOL     -0.111100
    155 H73         6.5900    3.7490   -3.2670 hc        1 MOL      0.049374
    156 H74         5.8470    2.5780   -4.3260 hc        1 MOL      0.049374
    157 H75         7.7700    3.7900   -5.5540 hx        1 MOL      0.143613
    158 H76         8.0630    2.0650   -5.3180 hx        1 MOL      0.143613
    159 H77         9.0050    4.0990   -3.3410 hn        1 MOL      0.274677
    160 H78         9.7060    2.6090   -3.8570 hn        1 MOL      0.274677
    161 H79         9.8650    3.9440   -4.7440 hn        1 MOL      0.274677
    162 N14         4.6910    0.5940    0.9320 n         1 MOL     -0.098586
    163 C49         3.8930    0.7000    2.1780 c3        1 MOL     -0.086228
    164 C50         4.5650   -0.1030    3.3490 c         1 MOL      0.527869
    165 O22         4.6790    0.3430    4.5000 o         1 MOL     -0.567359
    166 C51         2.4750    0.2170    1.8580 c3        1 MOL      0.152890
    167 C52         1.7730    1.1800    0.8510 c3        1 MOL      0.063761
    168 C53         0.4870    0.6720    0.3850 c         1 MOL      0.620429
    169 O23         0.4140   -0.5130   -0.1290 o         1 MOL     -0.693434
    170 O24        -0.5070    1.4180    0.2960 o         1 MOL     -0.693434
    171 H80         4.4910   -0.1850    0.3290 hn        1 MOL      0.150169
    172 H81         3.9020    1.7390    2.5230 h1        1 MOL      0.045678
    173 H82         1.9230    0.3450    2.7930 hc        1 MOL     -0.003629
    174 H83         2.5040   -0.8270    1.5670 hc        1 MOL     -0.003629
    175 H84         2.5130    1.4740    0.1160 hc        1 MOL     -0.020971
    176 H85         1.7400    2.0860    1.4530 hc        1 MOL     -0.020971
    177 N15         5.0110   -1.3280    3.1060 n         1 MOL     -0.027974
    178 C54         5.5840   -2.2750    4.0740 c3        1 MOL     -0.395714
    179 H86         6.6140   -1.9930    4.2910 h1        1 MOL      0.140856
    180 H87         5.0000   -2.2520    4.9940 h1        1 MOL      0.140856
    181 H88         5.5640   -3.2810    3.6550 h1        1 MOL      0.140856
    182 H89         4.8640   -1.7020    2.1820 hn        1 MOL      0.019216
    183 Ca1        -2.1120   -0.1940   -1.0660 Ca        1 MOL      1.800289
    184 O25        -1.7330   -2.8240   -2.1740 oh        1 MOL     -0.893172
    185 H90        -2.3990   -3.4880   -2.0300 ho        1 MOL      0.411072
    186 H91        -1.3690   -3.0320   -3.0470 ho        1 MOL      0.411072
    187 O26        -0.6370   -0.3920   -3.4040 oh        1 MOL     -0.893172
    188 H92        -1.2040    0.3150   -3.7070 ho        1 MOL      0.411072
    189 H93        -0.3160   -0.8030   -4.2010 ho        1 MOL      0.411072
@<TRIPOS>BOND
     1    1    2 1   
     2    1    4 1   
     3    1    5 1   
     4    1    6 1   
     5    2    3 2   
     6    2    7 1   
     7    7    8 1   
     8    7   15 1   
     9    8    9 1   
    10    8   11 1   
    11    8   16 1   
    12    9   10 2   
    13    9   19 1   
    14   11   12 1   
    15   11   17 1   
    16   11   18 1   
    17   12   13 1   
    18   12   14 1   
    19   19   20 1   
    20   19   28 1   
    21   20   21 1   
    22   20   23 1   
    23   20   29 1   
    24   21   22 2   
    25   21   41 1   
    26   23   24 1   
    27   23   30 1   
    28   23   31 1   
    29   24   25 1   
    30   24   32 1   
    31   24   33 1   
    32   25   26 1   
    33   25   34 1   
    34   25   35 1   
    35   26   27 1   
    36   26   36 1   
    37   26   37 1   
    38   27   38 1   
    39   27   39 1   
    40   27   40 1   
    41   41   42 1   
    42   41   49 1   
    43   42   43 1   
    44   42   45 1   
    45   42   50 1   
    46   43   44 2   
    47   43   53 1   
    48   45   46 1   
    49   45   51 1   
    50   45   52 1   
    51   46   47 1   
    52   46   48 1   
    53   53   54 1   
    54   53   57 1   
    55   54   55 1   
    56   54   58 1   
    57   54   59 1   
    58   55   56 2   
    59   55   60 1   
    60   60   61 1   
    61   60   68 1   
    62   61   62 1   
    63   61   64 1   
    64   61   69 1   
    65   62   63 2   
    66   62   72 1   
    67   64   65 1   
    68   64   70 1   
    69   64   71 1   
    70   65   66 1   
    71   65   67 1   
    72   72   73 1   
    73   72   76 1   
    74   73   74 1   
    75   73   77 1   
    76   73   78 1   
    77   74   75 2   
    78   74   79 1   
    79   79   80 1   
    80   79   86 1   
    81   80   81 1   
    82   80   83 1   
    83   80   87 1   
    84   81   82 2   
    85   81   93 1   
    86   83   84 1   
    87   83   85 1   
    88   83   88 1   
    89   84   90 1   
    90   84   91 1   
    91   84   92 1   
    92   85   89 1   
    93   93   94 1   
    94   93  101 1   
    95   94   95 1   
    96   94   97 1   
    97   94  102 1   
    98   95   96 2   
    99   95  112 1   
   100   97   98 1   
   101   97   99 1   
   102   97  103 1   
   103   98  100 1   
   104   98  104 1   
   105   98  105 1   
   106   99  106 1   
   107   99  107 1   
   108   99  108 1   
   109  100  109 1   
   110  100  110 1   
   111  100  111 1   
   112  112  113 1   
   113  112  119 1   
   114  113  114 1   
   115  113  116 1   
   116  113  120 1   
   117  114  115 2   
   118  114  126 1   
   119  116  117 1   
   120  116  118 1   
   121  116  121 1   
   122  117  123 1   
   123  117  124 1   
   124  117  125 1   
   125  118  122 1   
   126  126  127 1   
   127  126  133 1   
   128  127  128 1   
   129  127  130 1   
   130  127  134 1   
   131  128  129 2   
   132  128  140 1   
   133  130  131 1   
   134  130  132 1   
   135  130  135 1   
   136  131  137 1   
   137  131  138 1   
   138  131  139 1   
   139  132  136 1   
   140  140  141 1   
   141  140  149 1   
   142  141  142 1   
   143  141  144 1   
   144  141  150 1   
   145  142  143 2   
   146  142  162 1   
   147  144  145 1   
   148  144  151 1   
   149  144  152 1   
   150  145  146 1   
   151  145  153 1   
   152  145  154 1   
   153  146  147 1   
   154  146  155 1   
   155  146  156 1   
   156  147  148 1   
   157  147  157 1   
   158  147  158 1   
   159  148  159 1   
   160  148  160 1   
   161  148  161 1   
   162  162  163 1   
   163  162  171 1   
   164  163  164 1   
   165  163  166 1   
   166  163  172 1   
   167  164  165 2   
   168  164  177 1   
   169  166  167 1   
   170  166  173 1   
   171  166  174 1   
   172  167  168 1   
   173  167  175 1   
   174  167  176 1   
   175  168  169 1   
   176  168  170 1   
   177  177  178 1   
   178  177  182 1   
   179  178  179 1   
   180  178  180 1   
   181  178  181 1   
   182  184  185 1   
   183  184  186 1   
   184  187  188 1   
   185  187  189 1   
@<TRIPOS>SUBSTRUCTURE
     1 MOL         1 TEMP              0 ****  ****    0 ROOT
