@<TRIPOS>MOLECULE
MOL
  189   185     1     0     0
SMALL
resp


@<TRIPOS>ATOM
      1 C1         -0.8340    2.4030    6.8940 c3        1 MOL     -0.376812
      2 C2         -0.7350    2.4710    5.3810 c         1 MOL      0.732129
      3 O1          0.4190    2.4040    4.9090 o         1 MOL     -0.617840
      4 H1         -0.4390    1.4480    7.2410 hc        1 MOL      0.092300
      5 H2         -0.2560    3.2160    7.3330 hc        1 MOL      0.092300
      6 H3         -1.8780    2.4950    7.1940 hc        1 MOL      0.092300
      7 N1         -1.8510    2.5740    4.7000 n         1 MOL     -0.521926
      8 C3         -1.9180    2.3680    3.2710 c3        1 MOL      0.134323
      9 C4         -2.0850    3.6830    2.5330 c         1 MOL      0.434838
     10 O2         -2.7670    4.5450    3.0410 o         1 MOL     -0.518575
     11 C5         -3.0790    1.4030    3.0200 c3        1 MOL     -0.262292
     12 C6         -3.0640    0.8670    1.6200 c         1 MOL      0.787573
     13 O3         -3.0420   -0.3340    1.4090 o         1 MOL     -0.735445
     14 O4         -3.1930    1.6450    0.6890 o         1 MOL     -0.735445
     15 H4         -2.7190    2.7580    5.1920 hn        1 MOL      0.307410
     16 H5         -1.0430    1.7860    2.9680 h1        1 MOL      0.019641
     17 H6         -4.0630    1.8570    3.1260 hc        1 MOL      0.075199
     18 H7         -2.8400    0.5680    3.6890 hc        1 MOL      0.075199
     19 N2         -1.4310    3.8820    1.3800 n         1 MOL     -0.221393
     20 C7         -1.4210    5.0190    0.4820 c3        1 MOL     -0.076791
     21 C8         -2.6110    5.1340   -0.4250 c         1 MOL      0.454158
     22 O5         -2.9800    6.2620   -0.8360 o         1 MOL     -0.570164
     23 C9         -0.1760    4.9780   -0.4060 c3        1 MOL      0.004279
     24 C10         1.1850    5.0640    0.3300 c3        1 MOL     -0.067933
     25 C11         2.3260    5.0180   -0.7060 c3        1 MOL     -0.021227
     26 C12         3.6350    4.9870    0.0940 c3        1 MOL      0.087160
     27 N3          4.8240    5.2930   -0.7870 n4        1 MOL     -0.346333
     28 H8         -0.8060    3.1560    1.0720 hn        1 MOL      0.143878
     29 H9         -1.3810    5.9580    1.0390 h1        1 MOL      0.104977
     30 H10        -0.1260    5.9400   -0.9330 hc        1 MOL      0.032518
     31 H11        -0.1660    4.1790   -1.1430 hc        1 MOL      0.032518
     32 H12         1.2060    4.1680    0.9530 hc        1 MOL      0.037672
     33 H13         1.3080    6.0360    0.8020 hc        1 MOL      0.037672
     34 H14         2.3570    5.9610   -1.2590 hc        1 MOL      0.015789
     35 H15         2.2520    4.2700   -1.4960 hc        1 MOL      0.015789
     36 H16         3.6620    4.0230    0.6190 hx        1 MOL      0.080534
     37 H17         3.6410    5.7400    0.8870 hx        1 MOL      0.080534
     38 H18         4.8350    6.2990   -0.9190 hn        1 MOL      0.298652
     39 H19         5.6770    5.0060   -0.3470 hn        1 MOL      0.298652
     40 H20         4.8300    4.8600   -1.6950 hn        1 MOL      0.298652
     41 N4         -3.3500    4.0700   -0.7530 n         1 MOL     -0.192960
     42 C13        -4.5350    4.0330   -1.6430 c3        1 MOL     -0.096069
     43 C14        -5.6820    3.2890   -1.0960 c         1 MOL      0.493632
     44 O6         -6.7550    3.2780   -1.7090 o         1 MOL     -0.523572
     45 C15        -4.2510    3.7110   -3.1570 c3        1 MOL     -0.160865
     46 C16        -3.3360    2.5040   -3.3420 c         1 MOL      0.837279
     47 O7         -2.5670    2.5120   -4.3090 o         1 MOL     -0.741437
     48 O8         -3.2440    1.6560   -2.4700 o         1 MOL     -0.741437
     49 H21        -3.0390    3.1760   -0.4000 hn        1 MOL      0.162986
     50 H22        -4.8990    5.0500   -1.6270 h1        1 MOL      0.126054
     51 H23        -3.7500    4.5810   -3.5890 hc        1 MOL      0.048518
     52 H24        -5.2270    3.5880   -3.6350 hc        1 MOL      0.048518
     53 N5         -5.6040    2.5710    0.0490 n         1 MOL     -0.313775
     54 C17        -6.6720    1.7790    0.6630 c3        1 MOL     -0.154834
     55 C18        -7.3690    0.7180   -0.1470 c         1 MOL      0.407149
     56 O9         -8.5390    0.3350    0.0820 o         1 MOL     -0.555480
     57 H25        -4.7520    2.7010    0.5700 hn        1 MOL      0.243314
     58 H26        -7.4650    2.4480    1.0060 h1        1 MOL      0.111251
     59 H27        -6.2470    1.2650    1.5240 h1        1 MOL      0.111251
     60 N6         -6.7530    0.0600   -1.1070 n         1 MOL     -0.062175
     61 C19        -7.2490   -1.0330   -1.9410 c3        1 MOL     -0.030830
     62 C20        -7.5260   -2.3470   -1.1400 c         1 MOL      0.480782
     63 O10        -8.5120   -3.1090   -1.3980 o         1 MOL     -0.541951
     64 C21        -6.2720   -1.3800   -3.1190 c3        1 MOL     -0.386171
     65 C22        -4.7910   -1.5480   -2.7480 c         1 MOL      0.749180
     66 O11        -4.3750   -1.1640   -1.6180 o         1 MOL     -0.677575
     67 O12        -4.0740   -2.1540   -3.6270 o         1 MOL     -0.677575
     68 H28        -5.9100    0.5420   -1.3860 hn        1 MOL      0.165757
     69 H29        -8.2540   -0.7330   -2.2550 h1        1 MOL      0.094138
     70 H30        -6.2580   -0.5160   -3.7910 hc        1 MOL      0.128547
     71 H31        -6.6750   -2.2810   -3.5920 hc        1 MOL      0.128547
     72 N7         -6.7110   -2.5860   -0.1050 n         1 MOL     -0.241085
     73 C23        -6.7810   -3.8510    0.6850 c3        1 MOL     -0.215921
     74 C24        -5.3080   -4.4380    0.7620 c         1 MOL      0.584664
     75 O13        -5.1190   -5.4640    1.3820 o         1 MOL     -0.604278
     76 H32        -5.9430   -1.9540    0.0320 hn        1 MOL      0.215107
     77 H33        -7.3290   -4.6810    0.2320 h1        1 MOL      0.137868
     78 H34        -7.0400   -3.6370    1.7310 h1        1 MOL      0.137868
     79 N8         -4.2110   -3.8850    0.2360 n         1 MOL     -0.259628
     80 C25        -2.8470   -4.4650    0.2760 c3        1 MOL     -0.335445
     81 C26        -1.7950   -3.4850    0.6840 c         1 MOL      0.829199
     82 O14        -1.5900   -2.5210    0.0060 o         1 MOL     -0.667301
     83 C27        -2.5890   -5.0920   -1.1630 c3        1 MOL      0.453273
     84 C28        -1.1700   -5.7070   -1.3340 c3        1 MOL     -0.182216
     85 O15        -3.6160   -6.0700   -1.2730 oh        1 MOL     -0.640165
     86 H35        -4.3460   -3.0530   -0.3140 hn        1 MOL      0.174287
     87 H36        -2.7830   -5.2430    1.0340 h1        1 MOL      0.130632
     88 H37        -2.7560   -4.3480   -1.9440 h1        1 MOL      0.045503
     89 H38        -4.1320   -6.0300   -0.4620 ho        1 MOL      0.384264
     90 H39        -1.1040   -6.0260   -2.3640 hc        1 MOL      0.035294
     91 H40        -0.3120   -5.0690   -1.1100 hc        1 MOL      0.035294
     92 H41        -1.0600   -6.5560   -0.6570 hc        1 MOL      0.035294
     93 N9         -1.0550   -3.8380    1.7110 n         1 MOL     -0.531321
     94 C29         0.2430   -3.1140    1.8410 c3        1 MOL      0.055639
     95 C30         1.2880   -3.7910    0.9820 c         1 MOL      0.446689
     96 O16         1.4710   -5.0490    0.9260 o         1 MOL     -0.546918
     97 C31         0.5850   -2.9740    3.3550 c3        1 MOL      0.006886
     98 C32        -0.3580   -1.9300    4.0130 c3        1 MOL      0.266932
     99 C33         2.0400   -2.5320    3.6470 c3        1 MOL     -0.226977
    100 C34        -0.2350   -1.9210    5.5450 c3        1 MOL     -0.428069
    101 H42        -1.1400   -4.7720    2.0850 hn        1 MOL      0.317756
    102 H43         0.2090   -2.0960    1.4630 h1        1 MOL     -0.010826
    103 H44         0.3720   -3.9260    3.8390 hc        1 MOL      0.037258
    104 H45        -1.3500   -2.2710    3.7090 hc        1 MOL     -0.027300
    105 H46        -0.1650   -0.9190    3.6760 hc        1 MOL     -0.027300
    106 H47         2.2460   -2.6760    4.7050 hc        1 MOL      0.048603
    107 H48         2.7470   -3.1270    3.0660 hc        1 MOL      0.048603
    108 H49         2.1510   -1.4470    3.5410 hc        1 MOL      0.048603
    109 H50         0.6660   -1.3410    5.7530 hc        1 MOL      0.105321
    110 H51        -1.0670   -1.4260    6.0260 hc        1 MOL      0.105321
    111 H52        -0.0440   -2.9500    5.8460 hc        1 MOL      0.105321
    112 N10         2.0550   -2.9340    0.3380 n         1 MOL     -0.126272
    113 C35         3.1820   -3.1060   -0.6100 c3        1 MOL      0.002627
    114 C36         4.5070   -2.5040   -0.0800 c         1 MOL      0.304352
    115 O17         4.5990   -1.8070    0.9400 o         1 MOL     -0.293592
    116 C37         2.8140   -2.4490   -1.9520 c3        1 MOL      0.470875
    117 C38         1.7310   -3.2240   -2.6170 c3        1 MOL     -0.302728
    118 O18         2.6010   -1.0220   -1.9890 oh        1 MOL     -0.729882
    119 H53         1.8270   -1.9630    0.5110 hn        1 MOL      0.008966
    120 H54         3.3770   -4.1510   -0.8550 h1        1 MOL      0.080096
    121 H55         3.7140   -2.6190   -2.5590 h1        1 MOL     -0.083264
    122 H56         1.8480   -0.8250   -1.4250 ho        1 MOL      0.478042
    123 H57         2.2090   -4.1570   -2.9300 hc        1 MOL      0.073636
    124 H58         0.8500   -3.5120   -2.0430 hc        1 MOL      0.073636
    125 H59         1.4100   -2.6940   -3.5130 hc        1 MOL      0.073636
    126 N11         5.6140   -2.9880   -0.6530 n         1 MOL     -0.260036
    127 C39         7.0010   -2.6990   -0.2850 c3        1 MOL     -0.127117
    128 C40         7.1010   -1.1770    0.0160 c         1 MOL      0.355808
    129 O19         7.6200   -0.6810    1.0640 o         1 MOL     -0.462658
    130 C41         8.0350   -3.1840   -1.3840 c3        1 MOL      0.286381
    131 C42         9.5240   -3.1820   -0.9120 c3        1 MOL     -0.563261
    132 O20         7.6360   -4.5440   -1.5990 oh        1 MOL     -0.604929
    133 H60         5.5170   -3.7010   -1.3670 hn        1 MOL      0.250832
    134 H61         7.1580   -3.2560    0.6400 h1        1 MOL      0.182800
    135 H62         7.8800   -2.7010   -2.3510 h1        1 MOL      0.021336
    136 H63         8.3270   -4.9860   -2.0940 ho        1 MOL      0.413926
    137 H64         9.7930   -2.2580   -0.4110 hc        1 MOL      0.175066
    138 H65         9.5980   -3.9710   -0.1710 hc        1 MOL      0.175066
    139 H66        10.1660   -3.2940   -1.7810 hc        1 MOL      0.175066
    140 N12         6.5700   -0.3580   -0.9170 n         1 MOL     -0.300241
    141 C43         6.7110    1.1350   -0.8260 c3        1 MOL     -0.133792
    142 C44         5.7420    1.8330    0.2910 c         1 MOL      0.378874
    143 O21         5.7240    3.0340    0.5260 o         1 MOL     -0.551931
    144 C45         6.4870    1.8410   -2.2570 c3        1 MOL     -0.055601
    145 C46         7.4280    1.5770   -3.3930 c3        1 MOL      0.094406
    146 C47         7.0230    2.2000   -4.7260 c3        1 MOL     -0.135222
    147 C48         5.8970    1.4360   -5.2630 c3        1 MOL      0.078015
    148 N13         5.5930    1.9710   -6.5960 n4        1 MOL     -0.226624
    149 H67         6.0410   -0.6150   -1.7320 hn        1 MOL      0.267782
    150 H68         7.6820    1.3640   -0.3930 h1        1 MOL      0.173527
    151 H69         6.4780    2.9300   -2.1230 hc        1 MOL      0.026395
    152 H70         5.5040    1.4890   -2.5780 hc        1 MOL      0.026395
    153 H71         7.4870    0.5030   -3.5590 hc        1 MOL      0.007705
    154 H72         8.3800    1.9770   -3.0500 hc        1 MOL      0.007705
    155 H73         7.8760    1.9660   -5.3660 hc        1 MOL      0.050318
    156 H74         6.8290    3.2690   -4.6420 hc        1 MOL      0.050318
    157 H75         5.0550    1.5060   -4.5770 hx        1 MOL      0.085725
    158 H76         6.1620    0.4050   -5.5000 hx        1 MOL      0.085725
    159 H77         6.4480    2.0300   -7.1230 hn        1 MOL      0.265581
    160 H78         4.9400    1.4370   -7.1490 hn        1 MOL      0.265581
    161 H79         5.2840    2.9340   -6.5690 hn        1 MOL      0.265581
    162 N14         5.0130    1.0380    1.0360 n         1 MOL     -0.049202
    163 C49         4.0240    1.4050    2.0960 c3        1 MOL      0.032779
    164 C50         4.6410    0.7720    3.3490 c         1 MOL      0.345693
    165 O22         4.6920    1.5000    4.3690 o         1 MOL     -0.513784
    166 C51         2.6640    0.6920    1.7750 c3        1 MOL     -0.025675
    167 C52         2.1620    1.1810    0.4550 c3        1 MOL     -0.063068
    168 C53         0.7260    0.7200    0.1190 c         1 MOL      0.695817
    169 O23         0.5850   -0.3200   -0.5130 o         1 MOL     -0.611882
    170 O24        -0.3170    1.2880    0.5170 o         1 MOL     -0.611882
    171 H80         5.0990    0.0690    0.7600 hn        1 MOL      0.049865
    172 H81         3.9350    2.4860    2.1790 h1        1 MOL      0.084956
    173 H82         2.0390    0.9710    2.6170 hc        1 MOL      0.108945
    174 H83         2.8410   -0.3870    1.7880 hc        1 MOL      0.108945
    175 H84         2.8060    0.7540   -0.3180 hc        1 MOL     -0.049259
    176 H85         2.2210    2.2660    0.4450 hc        1 MOL     -0.049259
    177 N15         5.0940   -0.5040    3.4170 n         1 MOL     -0.169521
    178 C54         5.4660   -1.1450    4.7340 c3        1 MOL     -0.115715
    179 H86         4.9140   -2.0780    4.8510 h1        1 MOL      0.079664
    180 H87         6.5360   -1.3530    4.7480 h1        1 MOL      0.079664
    181 H88         5.2160   -0.4690    5.5510 h1        1 MOL      0.079664
    182 H89         5.1660   -1.0490    2.5700 hn        1 MOL      0.155689
    183 Ca1        -1.9620    0.0850   -1.0140 Ca        1 MOL      1.720198
    184 O25        -0.3530    1.2620   -2.8620 oh        1 MOL     -0.913526
    185 H90         0.4390    1.1030   -3.3740 ho        1 MOL      0.412099
    186 H91        -0.9730    1.6280   -3.4900 ho        1 MOL      0.412099
    187 O26        -1.5580   -1.4610   -3.1700 oh        1 MOL     -0.913526
    188 H92        -2.4760   -1.7120   -3.3040 ho        1 MOL      0.412099
    189 H93        -1.1900   -1.4310   -4.0550 ho        1 MOL      0.412099
@<TRIPOS>BOND
     1    1    2 1   
     2    1    4 1   
     3    1    5 1   
     4    1    6 1   
     5    2    3 2   
     6    2    7 1   
     7    7    8 1   
     8    7   15 1   
     9    8    9 1   
    10    8   11 1   
    11    8   16 1   
    12    9   10 2   
    13    9   19 1   
    14   11   12 1   
    15   11   17 1   
    16   11   18 1   
    17   12   13 1   
    18   12   14 1   
    19   19   20 1   
    20   19   28 1   
    21   20   21 1   
    22   20   23 1   
    23   20   29 1   
    24   21   22 2   
    25   21   41 1   
    26   23   24 1   
    27   23   30 1   
    28   23   31 1   
    29   24   25 1   
    30   24   32 1   
    31   24   33 1   
    32   25   26 1   
    33   25   34 1   
    34   25   35 1   
    35   26   27 1   
    36   26   36 1   
    37   26   37 1   
    38   27   38 1   
    39   27   39 1   
    40   27   40 1   
    41   41   42 1   
    42   41   49 1   
    43   42   43 1   
    44   42   45 1   
    45   42   50 1   
    46   43   44 2   
    47   43   53 1   
    48   45   46 1   
    49   45   51 1   
    50   45   52 1   
    51   46   47 1   
    52   46   48 1   
    53   53   54 1   
    54   53   57 1   
    55   54   55 1   
    56   54   58 1   
    57   54   59 1   
    58   55   56 2   
    59   55   60 1   
    60   60   61 1   
    61   60   68 1   
    62   61   62 1   
    63   61   64 1   
    64   61   69 1   
    65   62   63 2   
    66   62   72 1   
    67   64   65 1   
    68   64   70 1   
    69   64   71 1   
    70   65   66 1   
    71   65   67 1   
    72   72   73 1   
    73   72   76 1   
    74   73   74 1   
    75   73   77 1   
    76   73   78 1   
    77   74   75 2   
    78   74   79 1   
    79   79   80 1   
    80   79   86 1   
    81   80   81 1   
    82   80   83 1   
    83   80   87 1   
    84   81   82 2   
    85   81   93 1   
    86   83   84 1   
    87   83   85 1   
    88   83   88 1   
    89   84   90 1   
    90   84   91 1   
    91   84   92 1   
    92   85   89 1   
    93   93   94 1   
    94   93  101 1   
    95   94   95 1   
    96   94   97 1   
    97   94  102 1   
    98   95   96 2   
    99   95  112 1   
   100   97   98 1   
   101   97   99 1   
   102   97  103 1   
   103   98  100 1   
   104   98  104 1   
   105   98  105 1   
   106   99  106 1   
   107   99  107 1   
   108   99  108 1   
   109  100  109 1   
   110  100  110 1   
   111  100  111 1   
   112  112  113 1   
   113  112  119 1   
   114  113  114 1   
   115  113  116 1   
   116  113  120 1   
   117  114  115 2   
   118  114  126 1   
   119  116  117 1   
   120  116  118 1   
   121  116  121 1   
   122  117  123 1   
   123  117  124 1   
   124  117  125 1   
   125  118  122 1   
   126  126  127 1   
   127  126  133 1   
   128  127  128 1   
   129  127  130 1   
   130  127  134 1   
   131  128  129 2   
   132  128  140 1   
   133  130  131 1   
   134  130  132 1   
   135  130  135 1   
   136  131  137 1   
   137  131  138 1   
   138  131  139 1   
   139  132  136 1   
   140  140  141 1   
   141  140  149 1   
   142  141  142 1   
   143  141  144 1   
   144  141  150 1   
   145  142  143 2   
   146  142  162 1   
   147  144  145 1   
   148  144  151 1   
   149  144  152 1   
   150  145  146 1   
   151  145  153 1   
   152  145  154 1   
   153  146  147 1   
   154  146  155 1   
   155  146  156 1   
   156  147  148 1   
   157  147  157 1   
   158  147  158 1   
   159  148  159 1   
   160  148  160 1   
   161  148  161 1   
   162  162  163 1   
   163  162  171 1   
   164  163  164 1   
   165  163  166 1   
   166  163  172 1   
   167  164  165 2   
   168  164  177 1   
   169  166  167 1   
   170  166  173 1   
   171  166  174 1   
   172  167  168 1   
   173  167  175 1   
   174  167  176 1   
   175  168  169 1   
   176  168  170 1   
   177  177  178 1   
   178  177  182 1   
   179  178  179 1   
   180  178  180 1   
   181  178  181 1   
   182  184  185 1   
   183  184  186 1   
   184  187  188 1   
   185  187  189 1   
@<TRIPOS>SUBSTRUCTURE
     1 MOL         1 TEMP              0 ****  ****    0 ROOT
