@<TRIPOS>MOLECULE
MOL
  179   176     1     0     0
SMALL
resp


@<TRIPOS>ATOM
      1 C1          1.2870    4.4950    3.7560 c3        1 MOL     -0.301094
      2 C2          0.4320    3.7750    2.7090 c         1 MOL      0.747263
      3 O1          0.8450    3.6950    1.5360 o         1 MOL     -0.598297
      4 H1          1.7130    3.7630    4.4420 hc        1 MOL      0.070939
      5 H2          2.0910    5.0370    3.2590 hc        1 MOL      0.070939
      6 H3          0.6670    5.1960    4.3130 hc        1 MOL      0.070939
      7 N1         -0.7770    3.3480    3.0510 n         1 MOL     -0.754148
      8 C3         -1.6440    2.6280    2.0960 c3        1 MOL      0.314769
      9 C4         -2.5430    3.5930    1.2630 c         1 MOL      0.524652
     10 O2         -3.7710    3.4600    1.1680 o         1 MOL     -0.474472
     11 C5         -2.3410    1.5520    2.7800 c3        1 MOL     -0.093398
     12 C6         -3.1220    0.6260    1.8260 c         1 MOL      0.599411
     13 O3         -4.2160    0.1370    2.1900 o         1 MOL     -0.669771
     14 O4         -2.8480    0.5380    0.6290 o         1 MOL     -0.669771
     15 H4         -1.0610    3.4310    4.0180 hn        1 MOL      0.356791
     16 H5         -0.9350    2.1320    1.4300 h1        1 MOL      0.009584
     17 H6         -3.0280    2.0220    3.4890 hc        1 MOL      0.010734
     18 H7         -1.5500    0.9930    3.2810 hc        1 MOL      0.010734
     19 N2         -1.9550    4.6210    0.6270 n         1 MOL     -0.474772
     20 C7         -2.5910    5.7520   -0.0490 c3        1 MOL      0.003528
     21 C8         -3.5670    5.3780   -1.1480 c         1 MOL      0.540637
     22 O5         -4.4980    6.1660   -1.3480 o         1 MOL     -0.558876
     23 C9         -1.3730    6.6000   -0.6290 c3        1 MOL     -0.323148
     24 C10        -0.5420    7.2570    0.3960 c3        1 MOL      0.320167
     25 C11         0.5790    7.9420   -0.2790 c3        1 MOL      0.137409
     26 C12         1.5540    8.6400    0.5940 c3        1 MOL     -0.041900
     27 N3          0.9480    9.6670    1.4180 n4        1 MOL     -0.229450
     28 H8         -0.9920    4.7880    0.8810 hn        1 MOL      0.329009
     29 H9         -3.1810    6.2710    0.7020 h1        1 MOL      0.091343
     30 H10        -1.7700    7.4050   -1.2470 hc        1 MOL      0.104208
     31 H11        -0.7710    5.9700   -1.2810 hc        1 MOL      0.104208
     32 H12        -0.1560    6.5110    1.0810 hc        1 MOL     -0.106384
     33 H13        -1.0940    7.9820    0.9820 hc        1 MOL     -0.106384
     34 H14         0.1560    8.7000   -0.9320 hc        1 MOL     -0.004875
     35 H15         1.1010    7.2830   -0.9840 hc        1 MOL     -0.004875
     36 H16         2.2530    9.1350   -0.0760 hx        1 MOL      0.088489
     37 H17         2.1330    7.9480    1.2120 hx        1 MOL      0.088489
     38 H18         0.4350   10.4220    0.9830 hn        1 MOL      0.291743
     39 H19         0.4220    9.1650    2.1210 hn        1 MOL      0.291743
     40 H20         1.7300   10.0260    1.9520 hn        1 MOL      0.291743
     41 N4         -3.4270    4.1840   -1.7430 n         1 MOL     -0.460820
     42 C13        -4.4310    3.5990   -2.6670 c3        1 MOL      0.255154
     43 C14        -5.5780    2.9370   -1.9940 c         1 MOL      0.292185
     44 O6         -6.6190    2.7780   -2.6200 o         1 MOL     -0.524956
     45 C15        -3.8450    2.5200   -3.5610 c3        1 MOL     -0.443548
     46 C16        -3.0820    1.4830   -2.7490 c         1 MOL      0.845522
     47 O7         -3.4470    0.2800   -2.6800 o         1 MOL     -0.731583
     48 O8         -2.0180    1.8090   -2.1800 o         1 MOL     -0.731583
     49 H21        -2.7060    3.5210   -1.4850 hn        1 MOL      0.274152
     50 H22        -4.8680    4.3670   -3.3070 h1        1 MOL      0.053915
     51 H23        -3.1420    3.0310   -4.2160 hc        1 MOL      0.112416
     52 H24        -4.6560    2.0850   -4.1470 hc        1 MOL      0.112416
     53 N5         -5.3720    2.3940   -0.8070 n         1 MOL      0.145126
     54 C17        -6.4970    1.9640    0.1070 c3        1 MOL     -0.332767
     55 C18        -6.9920    0.5940   -0.3850 c         1 MOL      0.605909
     56 O9         -8.1410    0.4280   -0.6310 o         1 MOL     -0.551564
     57 H25        -4.4760    2.5810   -0.3870 hn        1 MOL      0.047727
     58 H26        -7.2860    2.7140   -0.0010 h1        1 MOL      0.135176
     59 H27        -6.0070    1.8950    1.0830 h1        1 MOL      0.135176
     60 N6         -6.0780   -0.4100   -0.5740 n         1 MOL     -0.029795
     61 C19        -6.4500   -1.8290   -0.7290 c3        1 MOL     -0.198453
     62 C20        -6.1490   -2.7290    0.4850 c         1 MOL      0.513437
     63 O10        -6.3860   -3.9500    0.4740 o         1 MOL     -0.540294
     64 C21        -5.7450   -2.3590   -2.0460 c3        1 MOL     -0.034406
     65 C22        -4.2320   -2.5260   -1.9000 c         1 MOL      0.502562
     66 N7         -3.6440   -3.1200   -2.9140 n         1 MOL     -0.766492
     67 O11        -3.6030   -2.2460   -0.9110 o         1 MOL     -0.407631
     68 H28        -5.0910   -0.1950   -0.5990 hn        1 MOL     -0.145386
     69 H29        -7.4890   -1.9020   -1.0340 h1        1 MOL      0.127457
     70 H30        -5.9420   -1.6860   -2.8810 hc        1 MOL      0.056205
     71 H31        -6.1010   -3.3370   -2.3590 hc        1 MOL      0.056205
     72 H32        -4.2090   -3.3810   -3.7090 hn        1 MOL      0.342297
     73 H33        -2.6370   -3.2490   -2.9060 hn        1 MOL      0.342297
     74 N8         -5.6900   -2.1240    1.6010 n         1 MOL     -0.402152
     75 C23        -5.5300   -2.7630    2.9120 c3        1 MOL      0.075766
     76 C24        -4.0700   -3.1620    3.2280 c         1 MOL      0.383912
     77 O12        -3.8640   -3.5790    4.3600 o         1 MOL     -0.556386
     78 H34        -5.3630   -1.1760    1.5370 hn        1 MOL      0.272100
     79 H35        -6.2170   -3.6060    3.0300 h1        1 MOL      0.071448
     80 H36        -5.9190   -2.1590    3.7210 h1        1 MOL      0.071448
     81 N9         -3.0610   -3.1350    2.2990 n         1 MOL     -0.114160
     82 C25        -1.6770   -3.6880    2.5880 c3        1 MOL     -0.158489
     83 C26        -0.6230   -2.8550    1.8600 c         1 MOL      0.600470
     84 O13        -0.8870   -1.9770    0.9630 o         1 MOL     -0.695798
     85 C27        -1.6670   -5.1720    2.1350 c3        1 MOL     -0.153502
     86 C28        -1.9080   -5.4310    0.7340 ca        1 MOL     -0.029606
     87 C29        -3.2990   -5.4720    0.3850 ca        1 MOL     -0.103241
     88 C30        -0.9150   -5.7480   -0.2150 ca        1 MOL     -0.103241
     89 C31        -3.6130   -5.9510   -0.8760 ca        1 MOL     -0.271894
     90 C32        -1.3270   -6.3310   -1.4170 ca        1 MOL     -0.271894
     91 C33        -2.6450   -6.4490   -1.7990 ca        1 MOL      0.419998
     92 O14        -2.8970   -6.9080   -3.0170 oh        1 MOL     -0.578002
     93 H37        -3.2650   -2.8010    1.3740 hn        1 MOL      0.270638
     94 H38        -1.4100   -3.7760    3.6450 h1        1 MOL      0.124383
     95 H39        -2.3970   -5.7490    2.7030 hc        1 MOL      0.098458
     96 H40        -0.7010   -5.5450    2.4770 hc        1 MOL      0.098458
     97 H41        -4.1310   -5.3090    1.0550 ha        1 MOL      0.119449
     98 H42         0.1290   -5.7740    0.0540 ha        1 MOL      0.119449
     99 H43        -4.6530   -6.0250   -1.1670 ha        1 MOL      0.116636
    100 H44        -0.6000   -6.5800   -2.1690 ha        1 MOL      0.116636
    101 H45        -3.7750   -6.6690   -3.3380 ho        1 MOL      0.426023
    102 N10         0.6280   -2.9930    2.4010 n         1 MOL     -0.348667
    103 C34         1.7710   -2.2760    1.9100 c3        1 MOL     -0.076138
    104 C35         2.8720   -3.2250    1.4460 c         1 MOL      0.378758
    105 O15         2.9370   -4.3750    1.9440 o         1 MOL     -0.548378
    106 C36         2.3180   -1.2620    2.9310 c3        1 MOL      0.056745
    107 C37         2.9700   -1.9400    4.1710 c3        1 MOL      0.103470
    108 C38         1.1830   -0.3030    3.3200 c3        1 MOL     -0.609623
    109 C39         4.1820   -1.1830    4.7820 c3        1 MOL     -0.341212
    110 H46         0.7770   -3.5460    3.2390 hn        1 MOL      0.263600
    111 H47         1.5030   -1.6130    1.0880 h1        1 MOL      0.182232
    112 H48         3.1270   -0.7140    2.4400 hc        1 MOL      0.031479
    113 H49         3.2830   -2.9730    4.0490 hc        1 MOL      0.012697
    114 H50         2.1830   -1.8940    4.9300 hc        1 MOL      0.012697
    115 H51         0.3880   -0.8700    3.8180 hc        1 MOL      0.185931
    116 H52         1.5320    0.5600    3.8800 hc        1 MOL      0.185931
    117 H53         0.7270   -0.0670    2.3600 hc        1 MOL      0.185931
    118 H54         4.5160   -1.7820    5.6220 hc        1 MOL      0.087470
    119 H55         4.9690   -1.2370    4.0300 hc        1 MOL      0.087470
    120 H56         3.8830   -0.1480    4.9480 hc        1 MOL      0.087470
    121 N11         3.7250   -2.7300    0.6210 n         1 MOL     -0.028880
    122 C40         5.0270   -3.3410    0.2680 c3        1 MOL     -0.057544
    123 C41         6.2440   -2.3570    0.2760 c         1 MOL      0.456238
    124 O16         6.0890   -1.1940    0.5540 o         1 MOL     -0.426719
    125 C42         4.7850   -3.9520   -1.0880 c3        1 MOL     -0.100994
    126 O17         4.7590   -2.9350   -2.0700 oh        1 MOL     -0.545818
    127 H57         3.5490   -1.8270    0.2060 hn        1 MOL      0.010822
    128 H58         5.3080   -4.1330    0.9600 h1        1 MOL      0.089247
    129 H59         3.8170   -4.4380   -1.0810 h1        1 MOL      0.108943
    130 H60         5.5310   -4.7060   -1.3690 h1        1 MOL      0.108943
    131 H61         3.8500   -2.8570   -2.3570 ho        1 MOL      0.406647
    132 N12         7.4530   -2.8220   -0.0820 n         1 MOL     -0.404116
    133 C43         8.6890   -1.9950   -0.1910 c3        1 MOL      0.155490
    134 C44         8.5680   -0.6890   -1.0050 c         1 MOL      0.492166
    135 O18         9.0930    0.3640   -0.6900 o         1 MOL     -0.540869
    136 C45         9.7370   -2.8800   -0.8350 c3        1 MOL     -0.257999
    137 H62         7.5220   -3.8240   -0.2000 hn        1 MOL      0.283008
    138 H63         9.0550   -1.6860    0.7850 h1        1 MOL      0.051159
    139 H64         9.7160   -3.8600   -0.3610 hc        1 MOL      0.076142
    140 H65         9.5550   -2.8020   -1.8970 hc        1 MOL      0.076142
    141 H66        10.7380   -2.4320   -0.7980 hc        1 MOL      0.076142
    142 N13         7.7900   -0.7430   -2.1010 n         1 MOL     -0.283334
    143 C46         7.5770    0.3440   -3.0270 c3        1 MOL      0.121826
    144 C47         6.7280    1.4720   -2.4220 c         1 MOL      0.358858
    145 O19         6.8270    2.6320   -2.6730 o         1 MOL     -0.509531
    146 C48         6.8640   -0.3960   -4.1880 c3        1 MOL     -0.426089
    147 H67         7.3100   -1.6200   -2.2550 hn        1 MOL      0.209568
    148 H68         8.5220    0.8100   -3.3090 h1        1 MOL      0.076031
    149 H69         6.4920    0.3820   -4.8690 hc        1 MOL      0.115460
    150 H70         7.6440   -1.0350   -4.6000 hc        1 MOL      0.115460
    151 H71         5.9600   -0.8650   -3.8090 hc        1 MOL      0.115460
    152 N14         5.8680    1.0590   -1.5060 n         1 MOL      0.007600
    153 C49         5.0010    2.0140   -0.8660 c3        1 MOL     -0.341120
    154 C50         5.6680    2.6040    0.3430 c         1 MOL      0.558950
    155 O20         5.5350    3.8000    0.6390 o         1 MOL     -0.563002
    156 C51         3.6720    1.3470   -0.4630 c3        1 MOL      0.092504
    157 C52         2.9780    0.3810   -1.3820 c3        1 MOL      0.134852
    158 C53         1.5210    0.0580   -1.0450 c         1 MOL      0.777105
    159 O21         1.1550   -1.0810   -1.2350 o         1 MOL     -0.768825
    160 O22         0.6810    0.8360   -0.6370 o         1 MOL     -0.768825
    161 H72         5.6650    0.0900   -1.3300 hn        1 MOL      0.190895
    162 H73         4.6270    2.7280   -1.5880 h1        1 MOL      0.162363
    163 H74         2.9460    2.1620   -0.4460 hc        1 MOL      0.000878
    164 H75         3.7350    0.7630    0.4560 hc        1 MOL      0.000878
    165 H76         3.5900   -0.5220   -1.3180 hc        1 MOL     -0.084407
    166 H77         3.0300    0.6560   -2.4330 hc        1 MOL     -0.084407
    167 N15         6.4440    1.7630    1.0430 n         1 MOL     -0.089536
    168 C54         7.0890    2.2330    2.2260 c3        1 MOL     -0.528211
    169 H78         7.5470    1.3930    2.7480 h1        1 MOL      0.165402
    170 H79         7.8600    2.9560    1.9580 h1        1 MOL      0.165402
    171 H80         6.3550    2.7080    2.8770 h1        1 MOL      0.165402
    172 H81         6.6270    0.8100    0.7560 hn        1 MOL      0.152076
    173 Ca1        -1.4800   -0.6590   -1.1930 Ca        1 MOL      1.763348
    174 O23        -0.8960   -3.0640   -1.9880 oh        1 MOL     -0.820138
    175 H82        -0.4160   -3.4790   -2.7010 ho        1 MOL      0.402604
    176 H83        -0.6060   -3.5250   -1.1990 ho        1 MOL      0.402604
    177 O24        -0.6530   -0.8220   -3.7830 oh        1 MOL     -0.820138
    178 H84        -0.7640   -0.2850   -4.5680 ho        1 MOL      0.402604
    179 H85        -0.5000   -1.7060   -4.1250 ho        1 MOL      0.402604
@<TRIPOS>BOND
     1    1    2 1   
     2    1    4 1   
     3    1    5 1   
     4    1    6 1   
     5    2    3 2   
     6    2    7 1   
     7    7    8 1   
     8    7   15 1   
     9    8    9 1   
    10    8   11 1   
    11    8   16 1   
    12    9   10 2   
    13    9   19 1   
    14   11   12 1   
    15   11   17 1   
    16   11   18 1   
    17   12   13 1   
    18   12   14 1   
    19   19   20 1   
    20   19   28 1   
    21   20   21 1   
    22   20   23 1   
    23   20   29 1   
    24   21   22 2   
    25   21   41 1   
    26   23   24 1   
    27   23   30 1   
    28   23   31 1   
    29   24   25 1   
    30   24   32 1   
    31   24   33 1   
    32   25   26 1   
    33   25   34 1   
    34   25   35 1   
    35   26   27 1   
    36   26   36 1   
    37   26   37 1   
    38   27   38 1   
    39   27   39 1   
    40   27   40 1   
    41   41   42 1   
    42   41   49 1   
    43   42   43 1   
    44   42   45 1   
    45   42   50 1   
    46   43   44 2   
    47   43   53 1   
    48   45   46 1   
    49   45   51 1   
    50   45   52 1   
    51   46   47 1   
    52   46   48 1   
    53   53   54 1   
    54   53   57 1   
    55   54   55 1   
    56   54   58 1   
    57   54   59 1   
    58   55   56 2   
    59   55   60 1   
    60   60   61 1   
    61   60   68 1   
    62   61   62 1   
    63   61   64 1   
    64   61   69 1   
    65   62   63 2   
    66   62   74 1   
    67   64   65 1   
    68   64   70 1   
    69   64   71 1   
    70   65   66 1   
    71   65   67 2   
    72   66   72 1   
    73   66   73 1   
    74   74   75 1   
    75   74   78 1   
    76   75   76 1   
    77   75   79 1   
    78   75   80 1   
    79   76   77 2   
    80   76   81 1   
    81   81   82 1   
    82   81   93 1   
    83   82   83 1   
    84   82   85 1   
    85   82   94 1   
    86   83   84 2   
    87   83  102 1   
    88   85   86 1   
    89   85   95 1   
    90   85   96 1   
    91   86   87 ar  
    92   86   88 ar  
    93   87   89 ar  
    94   87   97 1   
    95   88   90 ar  
    96   88   98 1   
    97   89   91 ar  
    98   89   99 1   
    99   90   91 ar  
   100   90  100 1   
   101   91   92 1   
   102   92  101 1   
   103  102  103 1   
   104  102  110 1   
   105  103  104 1   
   106  103  106 1   
   107  103  111 1   
   108  104  105 2   
   109  104  121 1   
   110  106  107 1   
   111  106  108 1   
   112  106  112 1   
   113  107  109 1   
   114  107  113 1   
   115  107  114 1   
   116  108  115 1   
   117  108  116 1   
   118  108  117 1   
   119  109  118 1   
   120  109  119 1   
   121  109  120 1   
   122  121  122 1   
   123  121  127 1   
   124  122  123 1   
   125  122  125 1   
   126  122  128 1   
   127  123  124 2   
   128  123  132 1   
   129  125  126 1   
   130  125  129 1   
   131  125  130 1   
   132  126  131 1   
   133  132  133 1   
   134  132  137 1   
   135  133  134 1   
   136  133  136 1   
   137  133  138 1   
   138  134  135 2   
   139  134  142 1   
   140  136  139 1   
   141  136  140 1   
   142  136  141 1   
   143  142  143 1   
   144  142  147 1   
   145  143  144 1   
   146  143  146 1   
   147  143  148 1   
   148  144  145 2   
   149  144  152 1   
   150  146  149 1   
   151  146  150 1   
   152  146  151 1   
   153  152  153 1   
   154  152  161 1   
   155  153  154 1   
   156  153  156 1   
   157  153  162 1   
   158  154  155 2   
   159  154  167 1   
   160  156  157 1   
   161  156  163 1   
   162  156  164 1   
   163  157  158 1   
   164  157  165 1   
   165  157  166 1   
   166  158  159 1   
   167  158  160 1   
   168  167  168 1   
   169  167  172 1   
   170  168  169 1   
   171  168  170 1   
   172  168  171 1   
   173  174  175 1   
   174  174  176 1   
   175  177  178 1   
   176  177  179 1   
@<TRIPOS>SUBSTRUCTURE
     1 MOL         1 TEMP              0 ****  ****    0 ROOT
