@<TRIPOS>MOLECULE
MOL
  189   185     1     0     0
SMALL
resp


@<TRIPOS>ATOM
      1 C1         -0.3080    2.5500    6.0260 c3        1 MOL     -0.267880
      2 C2         -0.5730    2.0690    4.6670 c         1 MOL      0.724058
      3 O1          0.4010    1.9920    3.9180 o         1 MOL     -0.612944
      4 H1         -0.1300    1.7000    6.6840 hc        1 MOL      0.067837
      5 H2          0.5720    3.1940    6.0190 hc        1 MOL      0.067837
      6 H3         -1.1670    3.1140    6.3870 hc        1 MOL      0.067837
      7 N1         -1.8540    1.8330    4.2620 n         1 MOL     -0.565272
      8 C3         -2.2180    1.7050    2.8680 c3        1 MOL      0.087567
      9 C4         -2.6660    3.0680    2.2860 c         1 MOL      0.473312
     10 O2         -3.6590    3.6040    2.7160 o         1 MOL     -0.503433
     11 C5         -3.3640    0.7210    2.7430 c3        1 MOL     -0.405097
     12 C6         -3.9300    0.5270    1.3560 c         1 MOL      0.833190
     13 O3         -5.1040    0.1730    1.1950 o         1 MOL     -0.697566
     14 O4         -3.1770    0.8880    0.3890 o         1 MOL     -0.697566
     15 H4         -2.6030    1.9250    4.9380 hn        1 MOL      0.325099
     16 H5         -1.3480    1.3220    2.3510 h1        1 MOL      0.001351
     17 H6         -4.2260    1.1190    3.2730 hc        1 MOL      0.106704
     18 H7         -3.1450   -0.2620    3.1520 hc        1 MOL      0.106704
     19 N2         -1.9550    3.5480    1.2220 n         1 MOL     -0.281791
     20 C7         -2.0640    4.8060    0.5670 c3        1 MOL     -0.054661
     21 C8         -3.2560    4.9010   -0.3970 c         1 MOL      0.393058
     22 O5         -3.7550    6.0630   -0.5340 o         1 MOL     -0.550896
     23 C9         -0.8240    5.4210   -0.0190 c3        1 MOL      0.052316
     24 C10         0.2090    5.5650    1.1150 c3        1 MOL     -0.133619
     25 C11         1.5180    6.0450    0.4140 c3        1 MOL     -0.024429
     26 C12         2.7470    5.9990    1.3380 c3        1 MOL      0.193615
     27 N3          3.8750    6.7310    0.6980 n4        1 MOL     -0.407014
     28 H8         -1.2150    2.9610    0.8420 hn        1 MOL      0.267010
     29 H9         -2.4360    5.4480    1.3590 h1        1 MOL      0.083944
     30 H10        -1.0970    6.3580   -0.5170 hc        1 MOL      0.043346
     31 H11        -0.5010    4.8360   -0.8730 hc        1 MOL      0.043346
     32 H12         0.3870    4.5970    1.5750 hc        1 MOL      0.057994
     33 H13        -0.2320    6.2540    1.8320 hc        1 MOL      0.057994
     34 H14         1.3310    7.0290    0.0060 hc        1 MOL      0.013147
     35 H15         1.7890    5.3780   -0.4050 hc        1 MOL      0.013147
     36 H16         3.0110    4.9690    1.5850 hx        1 MOL      0.042371
     37 H17         2.5200    6.5910    2.2270 hx        1 MOL      0.042371
     38 H18         4.7000    6.6750    1.2810 hn        1 MOL      0.327919
     39 H19         4.0770    6.3790   -0.2180 hn        1 MOL      0.327919
     40 H20         3.5880    7.7000    0.6240 hn        1 MOL      0.327919
     41 N4         -3.7230    3.7620   -0.9660 n         1 MOL     -0.140630
     42 C13        -4.8460    3.6460   -1.9830 c3        1 MOL     -0.159885
     43 C14        -6.2170    3.2810   -1.4280 c         1 MOL      0.495186
     44 O6         -7.2090    3.5820   -2.1300 o         1 MOL     -0.528279
     45 C15        -4.4270    2.5830   -3.0650 c3        1 MOL      0.166260
     46 C16        -2.9890    2.5420   -3.4230 c         1 MOL      0.583989
     47 O7         -2.1700    1.8940   -2.7740 o         1 MOL     -0.630572
     48 O8         -2.6240    3.3500   -4.3400 o         1 MOL     -0.630572
     49 H21        -3.1900    2.9350   -0.7300 hn        1 MOL      0.152538
     50 H22        -4.9460    4.5250   -2.6220 h1        1 MOL      0.114030
     51 H23        -5.0120    2.8280   -3.9560 hc        1 MOL     -0.029305
     52 H24        -4.6520    1.6510   -2.5540 hc        1 MOL     -0.029305
     53 N5         -6.3580    2.6890   -0.2590 n         1 MOL     -0.278639
     54 C17        -7.5460    1.9770    0.1370 c3        1 MOL     -0.327345
     55 C18        -7.8560    0.6540   -0.6320 c         1 MOL      0.484719
     56 O9         -8.9850    0.0720   -0.6560 o         1 MOL     -0.576167
     57 H25        -5.5310    2.3600    0.2140 hn        1 MOL      0.254105
     58 H26        -8.4230    2.6120    0.0300 h1        1 MOL      0.165903
     59 H27        -7.3440    1.7800    1.1900 h1        1 MOL      0.165903
     60 N6         -6.8630    0.0010   -1.2620 n         1 MOL     -0.111171
     61 C19        -7.0690   -1.2240   -2.0430 c3        1 MOL     -0.180337
     62 C20        -7.0560   -2.4630   -1.1240 c         1 MOL      0.467167
     63 O10        -7.3130   -3.6050   -1.5210 o         1 MOL     -0.561344
     64 C21        -6.0050   -1.3870   -3.1300 c3        1 MOL     -0.159278
     65 C22        -4.5530   -1.1720   -2.6900 c         1 MOL      0.659049
     66 O11        -3.6950   -0.7760   -3.4800 o         1 MOL     -0.705418
     67 O12        -4.2320   -1.3180   -1.4920 o         1 MOL     -0.705418
     68 H28        -5.8920    0.1970   -1.0700 hn        1 MOL      0.170035
     69 H29        -7.9540   -1.1660   -2.6640 h1        1 MOL      0.152585
     70 H30        -6.1760   -0.6560   -3.9140 hc        1 MOL      0.066884
     71 H31        -6.2100   -2.2810   -3.7230 hc        1 MOL      0.066884
     72 N7         -6.7140   -2.2430    0.1550 n         1 MOL     -0.136084
     73 C23        -6.7740   -3.3000    1.1840 c3        1 MOL     -0.250368
     74 C24        -5.4990   -4.1350    1.1350 c         1 MOL      0.594348
     75 O13        -5.5240   -5.1860    1.7860 o         1 MOL     -0.567469
     76 H32        -6.4610   -1.3020    0.4180 hn        1 MOL      0.224377
     77 H33        -7.6500   -3.9380    1.1050 h1        1 MOL      0.121815
     78 H34        -6.7600   -2.8480    2.1750 h1        1 MOL      0.121815
     79 N8         -4.4350   -3.7300    0.3910 n         1 MOL     -0.284757
     80 C25        -3.0980   -4.2820    0.4960 c3        1 MOL     -0.041743
     81 C26        -1.9690   -3.2430    0.8710 c         1 MOL      0.712998
     82 O14        -2.0730   -2.0830    0.5280 o         1 MOL     -0.655686
     83 C27        -2.7440   -5.1310   -0.7460 c3        1 MOL      0.330116
     84 C28        -3.2200   -6.5940   -0.9040 c3        1 MOL     -0.539858
     85 O15        -3.2080   -4.3950   -1.8320 oh        1 MOL     -0.569029
     86 H35        -4.4970   -2.8440   -0.0840 hn        1 MOL      0.199403
     87 H36        -3.1090   -4.8460    1.4270 h1        1 MOL      0.030847
     88 H37        -1.6650   -5.2250   -0.8670 h1        1 MOL      0.033520
     89 H38        -4.1400   -4.2250   -1.7390 ho        1 MOL      0.379028
     90 H39        -4.3110   -6.5790   -0.8610 hc        1 MOL      0.148511
     91 H40        -2.8180   -7.0450   -1.8090 hc        1 MOL      0.148511
     92 H41        -2.8320   -7.1430   -0.0420 hc        1 MOL      0.148511
     93 N9         -0.8480   -3.7690    1.3630 n         1 MOL     -0.672358
     94 C29         0.4160   -3.1190    1.6750 c3        1 MOL      0.103268
     95 C30         1.5820   -3.7060    0.8470 c         1 MOL      0.443900
     96 O16         1.8240   -4.8940    0.9380 o         1 MOL     -0.545489
     97 C31         0.6850   -3.1720    3.2310 c3        1 MOL      0.008476
     98 C32        -0.2430   -2.1400    3.9010 c3        1 MOL      0.149861
     99 C33         2.1580   -2.7960    3.5830 c3        1 MOL     -0.389834
    100 C34        -0.2530   -2.1250    5.3710 c3        1 MOL     -0.237957
    101 H42        -0.8650   -4.7740    1.4070 hn        1 MOL      0.322948
    102 H43         0.4220   -2.0740    1.3650 h1        1 MOL     -0.021543
    103 H44         0.4970   -4.1640    3.6430 hc        1 MOL      0.053010
    104 H45        -1.2580   -2.3990    3.5910 hc        1 MOL      0.027232
    105 H46        -0.0050   -1.1150    3.5950 hc        1 MOL      0.027232
    106 H47         2.3780   -2.8510    4.6560 hc        1 MOL      0.084259
    107 H48         2.8830   -3.2670    2.9210 hc        1 MOL      0.084259
    108 H49         2.3260   -1.7420    3.3860 hc        1 MOL      0.084259
    109 H50         0.6680   -1.7040    5.7820 hc        1 MOL      0.054556
    110 H51        -1.1010   -1.4870    5.6090 hc        1 MOL      0.054556
    111 H52        -0.4420   -3.1340    5.7450 hc        1 MOL      0.054556
    112 N10         2.3060   -2.8130    0.2020 n         1 MOL     -0.018388
    113 C35         3.4410   -3.0630   -0.6750 c3        1 MOL     -0.096344
    114 C36         4.7580   -2.6830   -0.1340 c         1 MOL      0.313268
    115 O17         4.8100   -2.2090    0.9810 o         1 MOL     -0.327266
    116 C37         3.2560   -2.2620   -2.0570 c3        1 MOL      0.075105
    117 C38         2.0440   -2.7350   -2.8160 c3        1 MOL     -0.316065
    118 O18         3.0750   -0.8670   -1.7880 oh        1 MOL     -0.540290
    119 H53         2.1120   -1.8300    0.3490 hn        1 MOL      0.351457
    120 H54         3.3440   -4.1320   -0.8490 h1        1 MOL      0.070497
    121 H55         4.0810   -2.3700   -2.7610 h1        1 MOL      0.059932
    122 H56         2.1750   -0.8330   -1.4660 ho        1 MOL      0.322474
    123 H57         2.1470   -3.7700   -3.1390 hc        1 MOL      0.092760
    124 H58         1.1610   -2.6680   -2.1680 hc        1 MOL      0.092760
    125 H59         1.8340   -2.1810   -3.7330 hc        1 MOL      0.092760
    126 N11         5.8320   -2.8620   -0.9530 n         1 MOL     -0.214854
    127 C39         7.2050   -2.7330   -0.4350 c3        1 MOL     -0.288660
    128 C40         7.4640   -1.2690    0.0310 c         1 MOL      0.392342
    129 O19         8.1460   -1.0090    0.9820 o         1 MOL     -0.455219
    130 C41         8.2240   -3.2110   -1.4590 c3        1 MOL      0.398380
    131 C42         8.1570   -4.6930   -1.6770 c3        1 MOL     -0.486595
    132 O20         8.1400   -2.6150   -2.7620 oh        1 MOL     -0.707280
    133 H60         5.5960   -3.1910   -1.8680 hn        1 MOL      0.243836
    134 H61         7.2470   -3.3420    0.4640 h1        1 MOL      0.191751
    135 H62         9.2450   -2.9990   -1.1220 h1        1 MOL      0.039180
    136 H63         8.7420   -2.9570   -3.4350 ho        1 MOL      0.429959
    137 H64         8.2690   -5.2260   -0.7380 hc        1 MOL      0.137444
    138 H65         7.2360   -4.9330   -2.2210 hc        1 MOL      0.137444
    139 H66         8.9690   -4.9180   -2.3670 hc        1 MOL      0.137444
    140 N12         6.8510   -0.2930   -0.6570 n         1 MOL     -0.293128
    141 C43         7.0440    1.1340   -0.3900 c3        1 MOL      0.050212
    142 C44         6.3740    1.5110    0.9210 c         1 MOL      0.380821
    143 O21         6.8880    2.1740    1.8180 o         1 MOL     -0.492193
    144 C45         6.7340    2.0620   -1.5710 c3        1 MOL     -0.178513
    145 C46         7.6620    1.8320   -2.7260 c3        1 MOL      0.102492
    146 C47         7.6130    3.0220   -3.7490 c3        1 MOL     -0.191468
    147 C48         8.7690    2.8830   -4.7180 c3        1 MOL      0.042328
    148 N13         8.7330    1.7040   -5.5220 n4        1 MOL     -0.119445
    149 H67         6.4080   -0.6150   -1.5130 hn        1 MOL      0.298842
    150 H68         8.0760    1.2980   -0.0720 h1        1 MOL      0.079266
    151 H69         6.7540    3.1030   -1.2420 hc        1 MOL      0.045398
    152 H70         5.7120    1.8040   -1.8570 hc        1 MOL      0.045398
    153 H71         7.5580    0.8240   -3.1190 hc        1 MOL     -0.003286
    154 H72         8.6590    1.8510   -2.2990 hc        1 MOL     -0.003286
    155 H73         7.8060    3.9060   -3.1370 hc        1 MOL      0.102168
    156 H74         6.6850    3.0380   -4.3200 hc        1 MOL      0.102168
    157 H75         9.6630    2.8450   -4.0950 hx        1 MOL      0.068307
    158 H76         8.8040    3.7870   -5.3290 hx        1 MOL      0.068307
    159 H77         9.1170    0.9230   -5.0040 hn        1 MOL      0.220716
    160 H78         7.8080    1.4960   -5.8780 hn        1 MOL      0.220716
    161 H79         9.4460    1.7490   -6.2270 hn        1 MOL      0.220716
    162 N14         5.0950    1.0250    1.0170 n         1 MOL     -0.168929
    163 C49         4.0890    1.2280    2.0830 c3        1 MOL     -0.147783
    164 C50         4.3620    0.6300    3.4190 c         1 MOL      0.442123
    165 O22         4.1580    1.2300    4.4420 o         1 MOL     -0.521146
    166 C51         2.7250    0.7760    1.6500 c3        1 MOL      0.117789
    167 C52         2.1490    1.4240    0.4190 c3        1 MOL     -0.396060
    168 C53         0.8840    0.7930   -0.1000 c         1 MOL      0.949421
    169 O23         0.8860   -0.4300   -0.3570 o         1 MOL     -0.816806
    170 O24        -0.0720    1.4950   -0.4180 o         1 MOL     -0.816806
    171 H80         4.8110    0.4880    0.2150 hn        1 MOL      0.179070
    172 H81         4.0750    2.3070    2.2970 h1        1 MOL      0.083220
    173 H82         2.0410    0.8040    2.5070 hc        1 MOL      0.056658
    174 H83         2.7600   -0.3010    1.5060 hc        1 MOL      0.056658
    175 H84         2.9610    1.3950   -0.2990 hc        1 MOL      0.055904
    176 H85         2.0010    2.4640    0.7200 hc        1 MOL      0.055904
    177 N15         4.9750   -0.5950    3.3130 n         1 MOL     -0.038669
    178 C54         5.5630   -1.4080    4.4240 c3        1 MOL     -0.353142
    179 H86         5.3870   -2.4670    4.2310 h1        1 MOL      0.124279
    180 H87         6.6360   -1.2230    4.4820 h1        1 MOL      0.124279
    181 H88         5.0940   -1.1290    5.3670 h1        1 MOL      0.124279
    182 H89         5.0450   -0.9680    2.3780 hn        1 MOL      0.110377
    183 Ca1        -1.7250   -0.2770   -1.4080 Ca        1 MOL      1.763719
    184 O25        -0.2180    0.2420   -3.4230 oh        1 MOL     -0.788949
    185 H90        -0.5920    1.1190   -3.4590 ho        1 MOL      0.376721
    186 H91         0.6430    0.3300   -3.8330 ho        1 MOL      0.376721
    187 O26        -1.4940   -2.6200   -2.8360 oh        1 MOL     -0.788949
    188 H92        -2.0570   -3.3680   -2.6240 ho        1 MOL      0.376721
    189 H93        -1.3050   -2.7090   -3.7670 ho        1 MOL      0.376721
@<TRIPOS>BOND
     1    1    2 1   
     2    1    4 1   
     3    1    5 1   
     4    1    6 1   
     5    2    3 2   
     6    2    7 1   
     7    7    8 1   
     8    7   15 1   
     9    8    9 1   
    10    8   11 1   
    11    8   16 1   
    12    9   10 2   
    13    9   19 1   
    14   11   12 1   
    15   11   17 1   
    16   11   18 1   
    17   12   13 1   
    18   12   14 1   
    19   19   20 1   
    20   19   28 1   
    21   20   21 1   
    22   20   23 1   
    23   20   29 1   
    24   21   22 2   
    25   21   41 1   
    26   23   24 1   
    27   23   30 1   
    28   23   31 1   
    29   24   25 1   
    30   24   32 1   
    31   24   33 1   
    32   25   26 1   
    33   25   34 1   
    34   25   35 1   
    35   26   27 1   
    36   26   36 1   
    37   26   37 1   
    38   27   38 1   
    39   27   39 1   
    40   27   40 1   
    41   41   42 1   
    42   41   49 1   
    43   42   43 1   
    44   42   45 1   
    45   42   50 1   
    46   43   44 2   
    47   43   53 1   
    48   45   46 1   
    49   45   51 1   
    50   45   52 1   
    51   46   47 1   
    52   46   48 1   
    53   53   54 1   
    54   53   57 1   
    55   54   55 1   
    56   54   58 1   
    57   54   59 1   
    58   55   56 2   
    59   55   60 1   
    60   60   61 1   
    61   60   68 1   
    62   61   62 1   
    63   61   64 1   
    64   61   69 1   
    65   62   63 2   
    66   62   72 1   
    67   64   65 1   
    68   64   70 1   
    69   64   71 1   
    70   65   66 1   
    71   65   67 1   
    72   72   73 1   
    73   72   76 1   
    74   73   74 1   
    75   73   77 1   
    76   73   78 1   
    77   74   75 2   
    78   74   79 1   
    79   79   80 1   
    80   79   86 1   
    81   80   81 1   
    82   80   83 1   
    83   80   87 1   
    84   81   82 2   
    85   81   93 1   
    86   83   84 1   
    87   83   85 1   
    88   83   88 1   
    89   84   90 1   
    90   84   91 1   
    91   84   92 1   
    92   85   89 1   
    93   93   94 1   
    94   93  101 1   
    95   94   95 1   
    96   94   97 1   
    97   94  102 1   
    98   95   96 2   
    99   95  112 1   
   100   97   98 1   
   101   97   99 1   
   102   97  103 1   
   103   98  100 1   
   104   98  104 1   
   105   98  105 1   
   106   99  106 1   
   107   99  107 1   
   108   99  108 1   
   109  100  109 1   
   110  100  110 1   
   111  100  111 1   
   112  112  113 1   
   113  112  119 1   
   114  113  114 1   
   115  113  116 1   
   116  113  120 1   
   117  114  115 2   
   118  114  126 1   
   119  116  117 1   
   120  116  118 1   
   121  116  121 1   
   122  117  123 1   
   123  117  124 1   
   124  117  125 1   
   125  118  122 1   
   126  126  127 1   
   127  126  133 1   
   128  127  128 1   
   129  127  130 1   
   130  127  134 1   
   131  128  129 2   
   132  128  140 1   
   133  130  131 1   
   134  130  132 1   
   135  130  135 1   
   136  131  137 1   
   137  131  138 1   
   138  131  139 1   
   139  132  136 1   
   140  140  141 1   
   141  140  149 1   
   142  141  142 1   
   143  141  144 1   
   144  141  150 1   
   145  142  143 2   
   146  142  162 1   
   147  144  145 1   
   148  144  151 1   
   149  144  152 1   
   150  145  146 1   
   151  145  153 1   
   152  145  154 1   
   153  146  147 1   
   154  146  155 1   
   155  146  156 1   
   156  147  148 1   
   157  147  157 1   
   158  147  158 1   
   159  148  159 1   
   160  148  160 1   
   161  148  161 1   
   162  162  163 1   
   163  162  171 1   
   164  163  164 1   
   165  163  166 1   
   166  163  172 1   
   167  164  165 2   
   168  164  177 1   
   169  166  167 1   
   170  166  173 1   
   171  166  174 1   
   172  167  168 1   
   173  167  175 1   
   174  167  176 1   
   175  168  169 1   
   176  168  170 1   
   177  177  178 1   
   178  177  182 1   
   179  178  179 1   
   180  178  180 1   
   181  178  181 1   
   182  184  185 1   
   183  184  186 1   
   184  187  188 1   
   185  187  189 1   
@<TRIPOS>SUBSTRUCTURE
     1 MOL         1 TEMP              0 ****  ****    0 ROOT
