@<TRIPOS>MOLECULE
MOL
  175   173     1     0     0
SMALL
resp


@<TRIPOS>ATOM
      1 C1          0.5810    4.0020    5.5330 c3        1 MOL     -0.333811
      2 C2         -0.1410    4.2260    4.1760 c         1 MOL      0.699124
      3 O1          0.4380    4.7260    3.2170 o         1 MOL     -0.538299
      4 H1         -0.0740    4.3100    6.3480 hc        1 MOL      0.076859
      5 H2          0.8260    2.9460    5.6450 hc        1 MOL      0.076859
      6 H3          1.4960    4.5930    5.5600 hc        1 MOL      0.076859
      7 N1         -1.3690    3.7650    4.0350 n         1 MOL     -0.604068
      8 C3         -2.0310    3.4510    2.7710 c3        1 MOL      0.123271
      9 C4         -2.1660    4.6700    1.8910 c         1 MOL      0.562628
     10 O2         -2.4040    5.7750    2.3740 o         1 MOL     -0.572338
     11 C5         -3.4380    2.8120    2.9890 c3        1 MOL     -0.211212
     12 C6         -4.1490    2.5280    1.6790 c         1 MOL      0.588515
     13 O3         -3.5190    1.8960    0.7850 o         1 MOL     -0.625380
     14 O4         -5.3450    2.8940    1.5470 o         1 MOL     -0.625380
     15 H4         -1.8670    3.5710    4.8920 hn        1 MOL      0.305237
     16 H5         -1.3500    2.7790    2.2410 h1        1 MOL     -0.009908
     17 H6         -4.0310    3.5680    3.5170 hc        1 MOL      0.044012
     18 H7         -3.3230    1.9770    3.6770 hc        1 MOL      0.044012
     19 N2         -1.9890    4.4300    0.6080 n         1 MOL     -0.328910
     20 C7         -2.0600    5.3950   -0.4500 c3        1 MOL      0.238265
     21 C8         -3.1030    5.1550   -1.5180 c         1 MOL      0.604372
     22 O5         -3.2280    5.9280   -2.4640 o         1 MOL     -0.598386
     23 C9         -0.6450    5.5120   -1.0550 c3        1 MOL     -0.341616
     24 H8         -1.6420    3.5200    0.3370 hn        1 MOL      0.259106
     25 H9         -2.4440    6.3170    0.0030 h1        1 MOL     -0.007198
     26 H10        -0.2840    4.6300   -1.5710 hc        1 MOL      0.083568
     27 H11        -0.6040    6.2740   -1.8300 hc        1 MOL      0.083568
     28 H12         0.0410    5.8150   -0.2500 hc        1 MOL      0.083568
     29 N3         -3.7990    3.9980   -1.4380 n         1 MOL     -0.653895
     30 C10        -4.5370    3.4800   -2.6670 c3        1 MOL      0.353234
     31 C11        -5.7700    2.5370   -2.4080 c         1 MOL      0.347248
     32 O6         -6.4870    2.1580   -3.3330 o         1 MOL     -0.574638
     33 C12        -3.7010    2.8060   -3.7160 c3        1 MOL     -0.214039
     34 C13        -3.0260    1.5120   -3.1670 c         1 MOL      0.781158
     35 O7         -3.4770    0.9350   -2.1510 o         1 MOL     -0.715849
     36 O8         -2.0670    1.0110   -3.8080 o         1 MOL     -0.715849
     37 H13        -3.5200    3.3140   -0.7460 hn        1 MOL      0.281621
     38 H14        -5.0500    4.3210   -3.1270 h1        1 MOL      0.020480
     39 H15        -2.9360    3.4870   -4.0900 hc        1 MOL      0.033756
     40 H16        -4.3420    2.6220   -4.5730 hc        1 MOL      0.033756
     41 N4         -5.9930    2.0790   -1.1830 n         1 MOL     -0.273878
     42 C14        -7.3120    1.4330   -0.9200 c3        1 MOL      0.010127
     43 C15        -7.4340   -0.0560   -1.3970 c         1 MOL      0.331622
     44 O9         -8.4340   -0.6950   -1.1940 o         1 MOL     -0.562979
     45 H17        -5.3740    2.1980   -0.3920 hn        1 MOL      0.189298
     46 H18        -8.1200    2.0610   -1.3140 h1        1 MOL      0.071798
     47 H19        -7.6800    1.5740    0.0950 h1        1 MOL      0.071798
     48 N5         -6.3280   -0.6090   -1.9600 n         1 MOL     -0.072909
     49 C16        -6.2880   -2.0180   -2.3850 c3        1 MOL     -0.047655
     50 C17        -6.3660   -2.9710   -1.1150 c         1 MOL      0.499630
     51 O10        -6.7610   -4.0970   -1.2450 o         1 MOL     -0.535940
     52 C18        -5.0770   -2.3640   -3.2710 c3        1 MOL     -0.239875
     53 C19        -3.7060   -2.2860   -2.5950 c         1 MOL      0.568215
     54 N6         -2.7320   -2.5940   -3.3750 n         1 MOL     -0.474497
     55 O11        -3.4590   -1.9520   -1.4370 o         1 MOL     -0.605908
     56 H20        -5.5340    0.0190   -1.9980 hn        1 MOL      0.187913
     57 H21        -7.1260   -2.1670   -3.0600 h1        1 MOL      0.097635
     58 H22        -5.1200   -1.7450   -4.1600 hc        1 MOL      0.080508
     59 H23        -5.1970   -3.4360   -3.4950 hc        1 MOL      0.080508
     60 H24        -2.8870   -2.9870   -4.2860 hn        1 MOL      0.274136
     61 H25        -1.7890   -2.5770   -3.0280 hn        1 MOL      0.274136
     62 N7         -6.0870   -2.4900    0.1150 n         1 MOL     -0.192267
     63 C20        -6.2510   -3.2500    1.3620 c3        1 MOL     -0.045222
     64 C21        -5.1850   -4.2370    1.7290 c         1 MOL      0.524008
     65 O12        -5.4450   -5.1760    2.5010 o         1 MOL     -0.572578
     66 H26        -5.7590   -1.5440    0.2640 hn        1 MOL      0.154116
     67 H27        -7.1940   -3.7570    1.5290 h1        1 MOL      0.040121
     68 H28        -6.2000   -2.5530    2.1880 h1        1 MOL      0.040121
     69 N8         -3.9700   -3.9480    1.2160 n         1 MOL     -0.269283
     70 C22        -2.7350   -4.5980    1.6330 c3        1 MOL     -0.272237
     71 C23        -1.6690   -3.4440    1.6700 c         1 MOL      0.786167
     72 O13        -1.7810   -2.3750    1.0090 o         1 MOL     -0.707435
     73 C24        -2.3620   -5.6710    0.6080 c3        1 MOL      0.629456
     74 C25        -3.1770   -6.9340    0.7280 c3        1 MOL     -0.356949
     75 O14        -2.3580   -5.3100   -0.7070 oh        1 MOL     -0.645861
     76 H29        -3.9090   -3.2540    0.4750 hn        1 MOL      0.226618
     77 H30        -2.7260   -4.9350    2.6700 h1        1 MOL      0.104445
     78 H31        -1.3780   -6.0080    0.9150 h1        1 MOL     -0.096699
     79 H32        -1.7560   -4.5770   -0.8720 ho        1 MOL      0.379924
     80 H33        -4.2320   -6.8310    0.4870 hc        1 MOL      0.084033
     81 H34        -2.7580   -7.7100    0.0850 hc        1 MOL      0.084033
     82 H35        -3.0920   -7.3070    1.7440 hc        1 MOL      0.084033
     83 N9         -0.5930   -3.5960    2.3860 n         1 MOL     -0.692108
     84 C26         0.6160   -2.7110    2.1880 c3        1 MOL      0.033882
     85 C27         1.3950   -3.1530    0.9360 c         1 MOL      0.580004
     86 O15         1.7430   -4.3240    0.7890 o         1 MOL     -0.586678
     87 C28         1.4810   -2.8130    3.4720 c3        1 MOL      0.189551
     88 C29         0.6500   -2.6590    4.7310 c3        1 MOL      0.320251
     89 C30         2.6490   -1.8100    3.3850 c3        1 MOL     -0.134147
     90 C31         1.5550   -2.5490    5.9620 c3        1 MOL     -0.423459
     91 H36        -0.4290   -4.4090    2.9650 hn        1 MOL      0.335083
     92 H37         0.4210   -1.6490    2.0420 h1        1 MOL     -0.018279
     93 H38         1.9400   -3.8000    3.5210 hc        1 MOL     -0.054739
     94 H39         0.0220   -3.5490    4.7700 hc        1 MOL     -0.081130
     95 H40        -0.0460   -1.8210    4.6480 hc        1 MOL     -0.081130
     96 H41         2.2260   -0.8020    3.3970 hc        1 MOL      0.016157
     97 H42         3.3620   -1.8940    4.1950 hc        1 MOL      0.016157
     98 H43         3.3070   -2.0260    2.5420 hc        1 MOL      0.016157
     99 H44         2.4800   -3.1230    5.9420 hc        1 MOL      0.090494
    100 H45         1.9060   -1.5230    6.0830 hc        1 MOL      0.090494
    101 H46         0.9140   -2.9810    6.7290 hc        1 MOL      0.090494
    102 N10         1.8070   -2.1800    0.1490 n         1 MOL     -0.393473
    103 C32         2.6830   -2.1470   -0.9310 c3        1 MOL      0.039561
    104 C33         4.0660   -1.6280   -0.6410 c         1 MOL      0.514085
    105 O16         4.2640   -0.9520    0.3620 o         1 MOL     -0.349425
    106 C34         2.0050   -1.3800   -2.1280 c3        1 MOL     -0.407863
    107 C35         0.4680   -1.6960   -2.3320 c         1 MOL      0.801126
    108 O17        -0.3960   -1.0950   -1.6560 o         1 MOL     -0.683298
    109 O18         0.1590   -2.5140   -3.2470 o         1 MOL     -0.683298
    110 H47         1.3940   -1.2830    0.3530 hn        1 MOL      0.444618
    111 H48         2.8510   -3.1940   -1.1800 h1        1 MOL      0.068504
    112 H49         2.5220   -1.5900   -3.0670 hc        1 MOL      0.113096
    113 H50         2.1370   -0.3310   -1.8770 hc        1 MOL      0.113096
    114 N11         5.0650   -1.7990   -1.5690 n         1 MOL     -0.733343
    115 C36         6.4110   -1.3830   -1.3080 c3        1 MOL      0.521970
    116 C37         6.6490    0.0870   -1.1730 c         1 MOL      0.070100
    117 O19         7.2190    0.6080   -0.2050 o         1 MOL     -0.445295
    118 C38         7.4250   -2.0440   -2.1770 c3        1 MOL     -0.334043
    119 C39         8.9300   -1.8120   -1.8470 ca        1 MOL      0.214371
    120 C40         9.4550   -2.1370   -0.5770 ca        1 MOL     -0.177605
    121 C41         9.9120   -1.6340   -2.8260 ca        1 MOL     -0.177605
    122 C42        10.7870   -2.1040   -0.2690 ca        1 MOL     -0.117794
    123 C43        11.2520   -1.8150   -2.5440 ca        1 MOL     -0.117794
    124 C44        11.7350   -2.0360   -1.2370 ca        1 MOL     -0.083874
    125 H51         4.8450   -2.3210   -2.3980 hn        1 MOL      0.348533
    126 H52         6.5710   -1.7280   -0.2830 h1        1 MOL      0.047328
    127 H53         7.3300   -1.5860   -3.1650 hc        1 MOL      0.089365
    128 H54         7.3450   -3.1240   -2.3330 hc        1 MOL      0.089365
    129 H55         8.6560   -2.2230    0.1460 ha        1 MOL      0.094013
    130 H56         9.5630   -1.5140   -3.8440 ha        1 MOL      0.094013
    131 H57        11.0910   -2.2070    0.7600 ha        1 MOL      0.105002
    132 H58        12.0280   -1.8300   -3.2980 ha        1 MOL      0.105002
    133 H59        12.8020   -2.1570   -1.1040 ha        1 MOL      0.095954
    134 N12         6.1120    0.8950   -2.1270 n         1 MOL      0.080009
    135 C45         6.1370    2.3430   -1.8800 c3        1 MOL      0.060258
    136 C46         5.4840    2.9060   -0.5820 c         1 MOL      0.254096
    137 O20         5.6850    4.0290   -0.1600 o         1 MOL     -0.499763
    138 C47         5.3720    2.9590   -3.0890 c3        1 MOL     -0.085937
    139 C48         5.4740    1.8920   -4.2280 c3        1 MOL      0.018386
    140 C49         5.6360    0.6050   -3.4690 c3        1 MOL     -0.197365
    141 H60         7.1490    2.7450   -1.9260 h1        1 MOL      0.051603
    142 H61         4.3350    3.0100   -2.7680 hc        1 MOL      0.048832
    143 H62         5.7640    3.8810   -3.5090 hc        1 MOL      0.048832
    144 H63         4.5860    1.8570   -4.8600 hc        1 MOL      0.029253
    145 H64         6.3290    2.2320   -4.8160 hc        1 MOL      0.029253
    146 H65         4.6270    0.1960   -3.3580 h1        1 MOL      0.070729
    147 H66         6.3330   -0.0730   -3.9590 h1        1 MOL      0.070729
    148 N13         4.6010    2.1300    0.0410 n         1 MOL      0.000189
    149 C50         4.1080    2.4140    1.4470 c3        1 MOL      0.094744
    150 C51         4.9640    1.7750    2.5320 c         1 MOL      0.418720
    151 O21         5.3230    2.5000    3.4630 o         1 MOL     -0.545599
    152 C52         2.7300    1.7780    1.5210 c3        1 MOL     -0.264216
    153 C53         1.7470    2.4420    0.5320 c3        1 MOL     -0.041754
    154 C54         0.4640    1.5710    0.3820 c         1 MOL      0.776035
    155 O22        -0.4390    2.0040   -0.3430 o         1 MOL     -0.772732
    156 O23         0.2890    0.4390    0.8420 o         1 MOL     -0.772732
    157 H67         4.4270    1.1740   -0.2140 hn        1 MOL      0.089200
    158 H68         4.0560    3.4650    1.7230 h1        1 MOL      0.074347
    159 H69         2.2770    1.9020    2.5070 hc        1 MOL      0.063504
    160 H70         2.8890    0.7370    1.2430 hc        1 MOL      0.063504
    161 H71         2.1820    2.4910   -0.4610 hc        1 MOL      0.027913
    162 H72         1.4870    3.4510    0.8500 hc        1 MOL      0.027913
    163 N14         5.5480    0.5760    2.3200 n         1 MOL     -0.083236
    164 C55         6.4160   -0.0140    3.3620 c3        1 MOL     -0.347325
    165 H73         5.9280    0.0740    4.3330 h1        1 MOL      0.117813
    166 H74         6.5910   -1.0660    3.1380 h1        1 MOL      0.117813
    167 H75         7.3680    0.5170    3.3850 h1        1 MOL      0.117813
    168 H76         5.2560   -0.0170    1.5580 hn        1 MOL      0.112278
    169 Ca1        -2.1050   -0.0670   -0.1060 Ca        1 MOL      1.681627
    170 O24        -4.1990   -0.6960    1.4140 oh        1 MOL     -0.741879
    171 H77        -4.9950   -0.2050    1.6500 ho        1 MOL      0.386263
    172 H78        -3.9610   -1.1570    2.2200 ho        1 MOL      0.386263
    173 O25        -1.5610   -0.0180    2.6080 oh        1 MOL     -0.741879
    174 H79        -1.6200    0.3640    3.4800 ho        1 MOL      0.386263
    175 H80        -0.6350    0.0810    2.3740 ho        1 MOL      0.386263
@<TRIPOS>BOND
     1    1    2 1   
     2    1    4 1   
     3    1    5 1   
     4    1    6 1   
     5    2    3 2   
     6    2    7 1   
     7    7    8 1   
     8    7   15 1   
     9    8    9 1   
    10    8   11 1   
    11    8   16 1   
    12    9   10 2   
    13    9   19 1   
    14   11   12 1   
    15   11   17 1   
    16   11   18 1   
    17   12   13 1   
    18   12   14 1   
    19   19   20 1   
    20   19   24 1   
    21   20   21 1   
    22   20   23 1   
    23   20   25 1   
    24   21   22 2   
    25   21   29 1   
    26   23   26 1   
    27   23   27 1   
    28   23   28 1   
    29   29   30 1   
    30   29   37 1   
    31   30   31 1   
    32   30   33 1   
    33   30   38 1   
    34   31   32 2   
    35   31   41 1   
    36   33   34 1   
    37   33   39 1   
    38   33   40 1   
    39   34   35 1   
    40   34   36 1   
    41   41   42 1   
    42   41   45 1   
    43   42   43 1   
    44   42   46 1   
    45   42   47 1   
    46   43   44 2   
    47   43   48 1   
    48   48   49 1   
    49   48   56 1   
    50   49   50 1   
    51   49   52 1   
    52   49   57 1   
    53   50   51 2   
    54   50   62 1   
    55   52   53 1   
    56   52   58 1   
    57   52   59 1   
    58   53   54 1   
    59   53   55 2   
    60   54   60 1   
    61   54   61 1   
    62   62   63 1   
    63   62   66 1   
    64   63   64 1   
    65   63   67 1   
    66   63   68 1   
    67   64   65 2   
    68   64   69 1   
    69   69   70 1   
    70   69   76 1   
    71   70   71 1   
    72   70   73 1   
    73   70   77 1   
    74   71   72 2   
    75   71   83 1   
    76   73   74 1   
    77   73   75 1   
    78   73   78 1   
    79   74   80 1   
    80   74   81 1   
    81   74   82 1   
    82   75   79 1   
    83   83   84 1   
    84   83   91 1   
    85   84   85 1   
    86   84   87 1   
    87   84   92 1   
    88   85   86 2   
    89   85  102 1   
    90   87   88 1   
    91   87   89 1   
    92   87   93 1   
    93   88   90 1   
    94   88   94 1   
    95   88   95 1   
    96   89   96 1   
    97   89   97 1   
    98   89   98 1   
    99   90   99 1   
   100   90  100 1   
   101   90  101 1   
   102  102  103 1   
   103  102  110 1   
   104  103  104 1   
   105  103  106 1   
   106  103  111 1   
   107  104  105 2   
   108  104  114 1   
   109  106  107 1   
   110  106  112 1   
   111  106  113 1   
   112  107  108 1   
   113  107  109 1   
   114  114  115 1   
   115  114  125 1   
   116  115  116 1   
   117  115  118 1   
   118  115  126 1   
   119  116  117 2   
   120  116  134 1   
   121  118  119 1   
   122  118  127 1   
   123  118  128 1   
   124  119  120 ar  
   125  119  121 ar  
   126  120  122 ar  
   127  120  129 1   
   128  121  123 ar  
   129  121  130 1   
   130  122  124 ar  
   131  122  131 1   
   132  123  124 ar  
   133  123  132 1   
   134  124  133 1   
   135  134  135 1   
   136  134  140 1   
   137  135  136 1   
   138  135  138 1   
   139  135  141 1   
   140  136  137 2   
   141  136  148 1   
   142  138  139 1   
   143  138  142 1   
   144  138  143 1   
   145  139  140 1   
   146  139  144 1   
   147  139  145 1   
   148  140  146 1   
   149  140  147 1   
   150  148  149 1   
   151  148  157 1   
   152  149  150 1   
   153  149  152 1   
   154  149  158 1   
   155  150  151 2   
   156  150  163 1   
   157  152  153 1   
   158  152  159 1   
   159  152  160 1   
   160  153  154 1   
   161  153  161 1   
   162  153  162 1   
   163  154  155 1   
   164  154  156 1   
   165  163  164 1   
   166  163  168 1   
   167  164  165 1   
   168  164  166 1   
   169  164  167 1   
   170  170  171 1   
   171  170  172 1   
   172  173  174 1   
   173  173  175 1   
@<TRIPOS>SUBSTRUCTURE
     1 MOL         1 TEMP              0 ****  ****    0 ROOT
