@<TRIPOS>MOLECULE
MOL
  189   185     1     0     0
SMALL
resp


@<TRIPOS>ATOM
      1 C1          0.1350    2.4850    5.9840 c3        1 MOL     -0.311584
      2 C2         -0.1900    2.2290    4.4760 c         1 MOL      0.675929
      3 O1          0.7690    2.4150    3.6740 o         1 MOL     -0.594248
      4 H1          0.2190    1.5300    6.5050 hc        1 MOL      0.082490
      5 H2          1.0780    3.0260    6.0670 hc        1 MOL      0.082490
      6 H3         -0.6640    3.0750    6.4340 hc        1 MOL      0.082490
      7 N1         -1.4330    1.7870    4.1380 n         1 MOL     -0.580244
      8 C3         -1.8140    1.5530    2.7220 c3        1 MOL     -0.074139
      9 C4         -2.1090    2.9050    2.0610 c         1 MOL      0.348088
     10 O2         -3.1860    3.4570    2.2920 o         1 MOL     -0.464614
     11 C5         -3.0990    0.6480    2.7800 c3        1 MOL     -0.099043
     12 C6         -3.5990    0.1920    1.3810 c         1 MOL      0.786888
     13 O3         -4.6070   -0.5150    1.3350 o         1 MOL     -0.718270
     14 O4         -2.9740    0.4890    0.3360 o         1 MOL     -0.718270
     15 H4         -2.1220    1.7910    4.8750 hn        1 MOL      0.359173
     16 H5         -0.9800    1.1290    2.1640 h1        1 MOL      0.103079
     17 H6         -3.9090    1.1550    3.3000 hc        1 MOL      0.059296
     18 H7         -2.9940   -0.2360    3.4050 hc        1 MOL      0.059296
     19 N2         -1.1380    3.4350    1.3010 n         1 MOL     -0.025419
     20 C7         -1.1230    4.7130    0.6350 c3        1 MOL     -0.069205
     21 C8         -2.2510    4.9480   -0.4150 c         1 MOL      0.437726
     22 O5         -2.8220    6.0130   -0.3450 o         1 MOL     -0.525143
     23 C9          0.2990    4.9510    0.0270 c3        1 MOL     -0.103112
     24 C10         1.4720    4.8230    0.9990 c3        1 MOL      0.013022
     25 C11         1.3890    6.0250    1.9760 c3        1 MOL     -0.111831
     26 C12         0.6310    5.7130    3.2760 c3        1 MOL      0.075725
     27 N3          0.2310    6.9690    3.9470 n4        1 MOL     -0.389518
     28 H8         -0.2930    2.8840    1.2980 hn        1 MOL      0.168085
     29 H9         -1.3660    5.4000    1.4400 h1        1 MOL      0.034203
     30 H10         0.3470    5.9610   -0.3890 hc        1 MOL      0.049332
     31 H11         0.3930    4.2900   -0.8310 hc        1 MOL      0.049332
     32 H12         2.3940    4.8530    0.4230 hc        1 MOL      0.062232
     33 H13         1.4630    3.8720    1.5360 hc        1 MOL      0.062232
     34 H14         0.8600    6.7960    1.4230 hc        1 MOL      0.038991
     35 H15         2.3950    6.3580    2.2390 hc        1 MOL      0.038991
     36 H16         1.2990    5.1770    3.9620 hx        1 MOL      0.090100
     37 H17        -0.2310    5.0660    3.0960 hx        1 MOL      0.090100
     38 H18        -0.1290    6.8520    4.8880 hn        1 MOL      0.327077
     39 H19         1.0250    7.5840    3.8580 hn        1 MOL      0.327077
     40 H20        -0.4540    7.4330    3.3690 hn        1 MOL      0.327077
     41 N4         -2.5460    3.9500   -1.3100 n         1 MOL     -0.264809
     42 C13        -3.7160    4.0110   -2.2640 c3        1 MOL      0.075909
     43 C14        -5.0220    3.4410   -1.7230 c         1 MOL      0.373431
     44 O6         -6.1300    3.6580   -2.2530 o         1 MOL     -0.509922
     45 C15        -3.3620    3.4360   -3.6200 c3        1 MOL     -0.256329
     46 C16        -2.9940    1.9870   -3.5950 c         1 MOL      0.885855
     47 O7         -3.5250    1.2670   -2.7690 o         1 MOL     -0.751876
     48 O8         -2.1200    1.6910   -4.4410 o         1 MOL     -0.751876
     49 H21        -1.9410    3.1460   -1.2720 hn        1 MOL      0.235791
     50 H22        -4.0100    5.0330   -2.4660 h1        1 MOL      0.075341
     51 H23        -2.5720    4.0450   -4.0590 hc        1 MOL      0.057353
     52 H24        -4.2030    3.4620   -4.3070 hc        1 MOL      0.057353
     53 N5         -4.9010    2.6740   -0.6130 n         1 MOL      0.072846
     54 C17        -6.1020    2.1930    0.1280 c3        1 MOL     -0.224325
     55 C18        -6.9420    1.2230   -0.7160 c         1 MOL      0.480644
     56 O9         -8.1830    1.3930   -0.6510 o         1 MOL     -0.570942
     57 H25        -4.0400    2.2080   -0.3730 hn        1 MOL     -0.231091
     58 H26        -6.7630    3.0470    0.2940 h1        1 MOL      0.113767
     59 H27        -5.7350    1.7460    1.0590 h1        1 MOL      0.113767
     60 N6         -6.3380    0.2870   -1.3630 n         1 MOL     -0.083290
     61 C19        -6.9260   -0.7930   -2.1300 c3        1 MOL     -0.266649
     62 C20        -7.2830   -2.0370   -1.2490 c         1 MOL      0.489597
     63 O10        -8.0130   -2.9620   -1.6740 o         1 MOL     -0.518643
     64 C21        -5.9710   -1.1950   -3.3630 c3        1 MOL     -0.055708
     65 C22        -4.5530   -1.5780   -3.0210 c         1 MOL      0.680774
     66 O11        -4.2260   -1.8110   -1.8500 o         1 MOL     -0.735863
     67 O12        -3.6580   -1.5920   -3.8670 o         1 MOL     -0.735863
     68 H28        -5.3760    0.2100   -1.0730 hn        1 MOL      0.239836
     69 H29        -7.8180   -0.4960   -2.6850 h1        1 MOL      0.159710
     70 H30        -5.8720   -0.3800   -4.0790 hc        1 MOL      0.053380
     71 H31        -6.4370   -1.9850   -3.9440 hc        1 MOL      0.053380
     72 N7         -6.8590   -1.9770    0.0390 n         1 MOL     -0.327825
     73 C23        -6.8390   -3.0500    1.0110 c3        1 MOL      0.018001
     74 C24        -5.5520   -3.8730    1.3420 c         1 MOL      0.448983
     75 O13        -5.5850   -5.0590    1.8120 o         1 MOL     -0.581592
     76 H32        -6.2490   -1.2340    0.3720 hn        1 MOL      0.259807
     77 H33        -7.5890   -3.7250    0.5860 h1        1 MOL      0.049292
     78 H34        -7.2660   -2.6350    1.9240 h1        1 MOL      0.049292
     79 N8         -4.4060   -3.3340    1.0370 n         1 MOL     -0.272856
     80 C25        -3.1440   -4.0810    0.9810 c3        1 MOL     -0.186332
     81 C26        -1.9370   -3.1480    1.0980 c         1 MOL      0.578255
     82 O14        -1.7470   -2.3200    0.2080 o         1 MOL     -0.617178
     83 C27        -3.0770   -4.9670   -0.3450 c3        1 MOL      0.647345
     84 C28        -3.2480   -6.4590   -0.1510 c3        1 MOL     -0.697689
     85 O15        -4.0140   -4.5120   -1.3140 oh        1 MOL     -0.702516
     86 H35        -4.3720   -2.3810    0.6990 hn        1 MOL      0.280456
     87 H36        -3.0830   -4.7210    1.8670 h1        1 MOL      0.102630
     88 H37        -2.1000   -4.7140   -0.7540 h1        1 MOL     -0.100904
     89 H38        -4.0460   -3.5520   -1.3780 ho        1 MOL      0.511963
     90 H39        -2.7370   -6.7730    0.7490 hc        1 MOL      0.179005
     91 H40        -4.2700   -6.6970    0.1610 hc        1 MOL      0.179005
     92 H41        -2.9850   -6.8890   -1.1180 hc        1 MOL      0.179005
     93 N9         -1.0540   -3.2840    2.1100 n         1 MOL     -0.606888
     94 C29         0.1470   -2.5070    2.3310 c3        1 MOL      0.199550
     95 C30         1.2200   -3.3680    1.7180 c         1 MOL      0.521276
     96 O16         1.4540   -4.4370    2.1920 o         1 MOL     -0.569142
     97 C31         0.4480   -2.2510    3.8010 c3        1 MOL      0.190554
     98 C32        -0.7170   -1.6620    4.5780 c3        1 MOL      0.234350
     99 C33         1.7760   -1.4210    3.8790 c3        1 MOL     -0.539613
    100 C34        -0.4870   -2.0640    6.0470 c3        1 MOL     -0.176921
    101 H42        -0.9850   -4.1690    2.6070 hn        1 MOL      0.295882
    102 H43        -0.0220   -1.5400    1.8420 h1        1 MOL      0.050001
    103 H44         0.5800   -3.2360    4.2510 hc        1 MOL     -0.024082
    104 H45        -1.6680   -2.1000    4.2890 hc        1 MOL     -0.050897
    105 H46        -0.7070   -0.5670    4.5060 hc        1 MOL     -0.050897
    106 H47         2.6000   -1.9930    3.4360 hc        1 MOL      0.120057
    107 H48         1.6770   -0.4820    3.3350 hc        1 MOL      0.120057
    108 H49         2.0380   -1.1490    4.9000 hc        1 MOL      0.120057
    109 H50        -1.2780   -1.6320    6.6640 hc        1 MOL      0.027918
    110 H51        -0.5610   -3.1460    6.0810 hc        1 MOL      0.027918
    111 H52         0.4880   -1.7540    6.4210 hc        1 MOL      0.027918
    112 N10         1.8410   -2.7600    0.7140 n         1 MOL     -0.296618
    113 C35         3.0930   -3.2970    0.0460 c3        1 MOL     -0.018411
    114 C36         4.3890   -2.7730    0.6150 c         1 MOL      0.359881
    115 O17         4.5730   -1.8260    1.3830 o         1 MOL     -0.365973
    116 C37         3.0680   -2.9420   -1.4730 c3        1 MOL      0.224526
    117 C38         1.8550   -3.3260   -2.1700 c3        1 MOL     -0.257898
    118 O18         3.2690   -1.5660   -1.5520 oh        1 MOL     -0.593537
    119 H53         1.5530   -1.8140    0.5090 hn        1 MOL      0.359379
    120 H54         3.0330   -4.3830    0.1000 h1        1 MOL      0.086260
    121 H55         3.8670   -3.4900   -1.9740 h1        1 MOL      0.006156
    122 H56         2.3960   -1.1800   -1.6940 ho        1 MOL      0.433784
    123 H57         0.8900   -3.0650   -1.7430 hc        1 MOL      0.071952
    124 H58         1.8170   -2.8830   -3.1640 hc        1 MOL      0.071952
    125 H59         1.8440   -4.4070   -2.3480 hc        1 MOL      0.071952
    126 N11         5.4280   -3.4340    0.1510 n         1 MOL     -0.188784
    127 C39         6.7920   -3.0280    0.4530 c3        1 MOL     -0.087291
    128 C40         7.1560   -1.5420    0.1510 c         1 MOL      0.235834
    129 O19         7.6500   -0.7740    0.9800 o         1 MOL     -0.399906
    130 C41         7.7740   -3.9990   -0.2710 c3        1 MOL      0.541258
    131 C42         8.9880   -4.1450    0.6080 c3        1 MOL     -0.451153
    132 O20         7.2810   -5.2180   -0.4850 oh        1 MOL     -0.614718
    133 H60         5.3310   -4.3180   -0.3180 hn        1 MOL      0.178790
    134 H61         6.8800   -3.1110    1.5380 h1        1 MOL      0.097134
    135 H62         7.9650   -3.6050   -1.2660 h1        1 MOL     -0.096526
    136 H63         7.4530   -5.4500   -1.4020 ho        1 MOL      0.408053
    137 H64         9.7020   -4.8310    0.1650 hc        1 MOL      0.116402
    138 H65         9.4790   -3.2400    0.9620 hc        1 MOL      0.116402
    139 H66         8.6840   -4.6280    1.5340 hc        1 MOL      0.116402
    140 N12         6.7820   -1.0490   -1.0590 n         1 MOL     -0.113215
    141 C43         7.0030    0.2990   -1.4400 c3        1 MOL     -0.241287
    142 C44         6.1450    1.3170   -0.5990 c         1 MOL      0.401427
    143 O21         6.7450    2.2970   -0.1670 o         1 MOL     -0.485318
    144 C45         6.7430    0.3050   -2.9820 c3        1 MOL     -0.288018
    145 C46         6.9690    1.7220   -3.5410 c3        1 MOL      0.117371
    146 C47         6.8500    1.7190   -5.0090 c3        1 MOL      0.070679
    147 C48         7.3610    2.9720   -5.8250 c3        1 MOL     -0.205617
    148 N13         8.8550    3.0110   -5.8420 n4        1 MOL     -0.213964
    149 H67         6.2500   -1.6090   -1.7090 hn        1 MOL      0.192909
    150 H68         8.0370    0.5950   -1.2790 h1        1 MOL      0.163596
    151 H69         5.7200    0.0900   -3.2800 hc        1 MOL      0.109778
    152 H70         7.3880   -0.4250   -3.4930 hc        1 MOL      0.109778
    153 H71         7.9660    2.0490   -3.2580 hc        1 MOL      0.012224
    154 H72         6.3360    2.5100   -3.1480 hc        1 MOL      0.012224
    155 H73         5.8120    1.4930   -5.2570 hc        1 MOL      0.015832
    156 H74         7.3380    0.8210   -5.4100 hc        1 MOL      0.015832
    157 H75         6.9050    3.8750   -5.4250 hx        1 MOL      0.154646
    158 H76         7.0450    2.9540   -6.8650 hx        1 MOL      0.154646
    159 H77         9.1370    3.8530   -6.3230 hn        1 MOL      0.274041
    160 H78         9.4160    2.9870   -5.0030 hn        1 MOL      0.274041
    161 H79         9.2590    2.3070   -6.4430 hn        1 MOL      0.274041
    162 N14         4.8840    0.9530   -0.2830 n         1 MOL     -0.027655
    163 C49         3.9810    1.6950    0.6100 c3        1 MOL     -0.232386
    164 C50         4.5850    1.7400    2.0600 c         1 MOL      0.568230
    165 O22         4.9110    2.7910    2.5050 o         1 MOL     -0.563583
    166 C51         2.5960    1.0160    0.5490 c3        1 MOL      0.010965
    167 C52         1.9270    1.5290   -0.7390 c3        1 MOL     -0.096500
    168 C53         0.6430    0.8240   -1.0040 c         1 MOL      0.726757
    169 O23        -0.3690    1.4610   -1.4830 o         1 MOL     -0.763781
    170 O24         0.5630   -0.4090   -0.7350 o         1 MOL     -0.763781
    171 H80         4.6680    0.0210   -0.6080 hn        1 MOL      0.105980
    172 H81         3.9690    2.7360    0.2970 h1        1 MOL      0.098296
    173 H82         1.9720    1.1820    1.4300 hc        1 MOL     -0.036255
    174 H83         2.7650   -0.0580    0.5140 hc        1 MOL     -0.036255
    175 H84         2.5190    1.3590   -1.6390 hc        1 MOL      0.022174
    176 H85         1.6990    2.5900   -0.6320 hc        1 MOL      0.022174
    177 N15         4.9250    0.6260    2.7080 n         1 MOL     -0.171934
    178 C54         5.5230    0.5270    4.0330 c3        1 MOL     -0.174518
    179 H86         4.8720   -0.0580    4.6820 h1        1 MOL      0.077884
    180 H87         6.4950    0.0390    3.9580 h1        1 MOL      0.077884
    181 H88         5.6490    1.5260    4.4510 h1        1 MOL      0.077884
    182 H89         4.9660   -0.2260    2.1550 hn        1 MOL      0.197556
    183 Ca1        -1.9920   -0.5370   -1.8320 Ca        1 MOL      1.785908
    184 O25        -1.6090   -3.2370   -2.9240 oh        1 MOL     -0.798074
    185 H90        -1.2810   -3.2290   -3.8270 ho        1 MOL      0.384870
    186 H91        -2.4190   -3.7400   -2.9700 ho        1 MOL      0.384870
    187 O26        -0.3630   -0.4120   -4.1330 oh        1 MOL     -0.798074
    188 H92        -1.0030   -0.0130   -4.7250 ho        1 MOL      0.384870
    189 H93         0.4460   -0.4440   -4.6470 ho        1 MOL      0.384870
@<TRIPOS>BOND
     1    1    2 1   
     2    1    4 1   
     3    1    5 1   
     4    1    6 1   
     5    2    3 2   
     6    2    7 1   
     7    7    8 1   
     8    7   15 1   
     9    8    9 1   
    10    8   11 1   
    11    8   16 1   
    12    9   10 2   
    13    9   19 1   
    14   11   12 1   
    15   11   17 1   
    16   11   18 1   
    17   12   13 1   
    18   12   14 1   
    19   19   20 1   
    20   19   28 1   
    21   20   21 1   
    22   20   23 1   
    23   20   29 1   
    24   21   22 2   
    25   21   41 1   
    26   23   24 1   
    27   23   30 1   
    28   23   31 1   
    29   24   25 1   
    30   24   32 1   
    31   24   33 1   
    32   25   26 1   
    33   25   34 1   
    34   25   35 1   
    35   26   27 1   
    36   26   36 1   
    37   26   37 1   
    38   27   38 1   
    39   27   39 1   
    40   27   40 1   
    41   41   42 1   
    42   41   49 1   
    43   42   43 1   
    44   42   45 1   
    45   42   50 1   
    46   43   44 2   
    47   43   53 1   
    48   45   46 1   
    49   45   51 1   
    50   45   52 1   
    51   46   47 1   
    52   46   48 1   
    53   53   54 1   
    54   53   57 1   
    55   54   55 1   
    56   54   58 1   
    57   54   59 1   
    58   55   56 2   
    59   55   60 1   
    60   60   61 1   
    61   60   68 1   
    62   61   62 1   
    63   61   64 1   
    64   61   69 1   
    65   62   63 2   
    66   62   72 1   
    67   64   65 1   
    68   64   70 1   
    69   64   71 1   
    70   65   66 1   
    71   65   67 1   
    72   72   73 1   
    73   72   76 1   
    74   73   74 1   
    75   73   77 1   
    76   73   78 1   
    77   74   75 2   
    78   74   79 1   
    79   79   80 1   
    80   79   86 1   
    81   80   81 1   
    82   80   83 1   
    83   80   87 1   
    84   81   82 2   
    85   81   93 1   
    86   83   84 1   
    87   83   85 1   
    88   83   88 1   
    89   84   90 1   
    90   84   91 1   
    91   84   92 1   
    92   85   89 1   
    93   93   94 1   
    94   93  101 1   
    95   94   95 1   
    96   94   97 1   
    97   94  102 1   
    98   95   96 2   
    99   95  112 1   
   100   97   98 1   
   101   97   99 1   
   102   97  103 1   
   103   98  100 1   
   104   98  104 1   
   105   98  105 1   
   106   99  106 1   
   107   99  107 1   
   108   99  108 1   
   109  100  109 1   
   110  100  110 1   
   111  100  111 1   
   112  112  113 1   
   113  112  119 1   
   114  113  114 1   
   115  113  116 1   
   116  113  120 1   
   117  114  115 2   
   118  114  126 1   
   119  116  117 1   
   120  116  118 1   
   121  116  121 1   
   122  117  123 1   
   123  117  124 1   
   124  117  125 1   
   125  118  122 1   
   126  126  127 1   
   127  126  133 1   
   128  127  128 1   
   129  127  130 1   
   130  127  134 1   
   131  128  129 2   
   132  128  140 1   
   133  130  131 1   
   134  130  132 1   
   135  130  135 1   
   136  131  137 1   
   137  131  138 1   
   138  131  139 1   
   139  132  136 1   
   140  140  141 1   
   141  140  149 1   
   142  141  142 1   
   143  141  144 1   
   144  141  150 1   
   145  142  143 2   
   146  142  162 1   
   147  144  145 1   
   148  144  151 1   
   149  144  152 1   
   150  145  146 1   
   151  145  153 1   
   152  145  154 1   
   153  146  147 1   
   154  146  155 1   
   155  146  156 1   
   156  147  148 1   
   157  147  157 1   
   158  147  158 1   
   159  148  159 1   
   160  148  160 1   
   161  148  161 1   
   162  162  163 1   
   163  162  171 1   
   164  163  164 1   
   165  163  166 1   
   166  163  172 1   
   167  164  165 2   
   168  164  177 1   
   169  166  167 1   
   170  166  173 1   
   171  166  174 1   
   172  167  168 1   
   173  167  175 1   
   174  167  176 1   
   175  168  169 1   
   176  168  170 1   
   177  177  178 1   
   178  177  182 1   
   179  178  179 1   
   180  178  180 1   
   181  178  181 1   
   182  184  185 1   
   183  184  186 1   
   184  187  188 1   
   185  187  189 1   
@<TRIPOS>SUBSTRUCTURE
     1 MOL         1 TEMP              0 ****  ****    0 ROOT
