@<TRIPOS>MOLECULE
MOL
  189   185     1     0     0
SMALL
resp


@<TRIPOS>ATOM
      1 C1         -0.2130    1.6910    6.3790 c3        1 MOL     -0.589742
      2 C2         -0.7420    1.5790    4.9440 c         1 MOL      0.680569
      3 O1         -0.8710    0.4980    4.4350 o         1 MOL     -0.529136
      4 H1          0.7660    1.2180    6.4430 hc        1 MOL      0.158566
      5 H2         -0.1270    2.7420    6.6540 hc        1 MOL      0.158566
      6 H3         -0.9020    1.1920    7.0600 hc        1 MOL      0.158566
      7 N1         -1.1640    2.6720    4.3670 n         1 MOL     -0.496480
      8 C3         -1.7710    2.6850    3.0300 c3        1 MOL      0.045803
      9 C4         -1.7180    4.1480    2.3690 c         1 MOL      0.504830
     10 O2         -1.4410    5.1420    2.9940 o         1 MOL     -0.583257
     11 C5         -3.2980    2.3640    3.3410 c3        1 MOL     -0.202864
     12 C6         -4.1670    2.2440    2.1110 c         1 MOL      0.597469
     13 O3         -5.3240    2.7000    2.0640 o         1 MOL     -0.635305
     14 O4         -3.6080    1.6490    1.1650 o         1 MOL     -0.635305
     15 H4         -0.9050    3.5460    4.7860 hn        1 MOL      0.294805
     16 H5         -1.3350    1.9690    2.3310 h1        1 MOL      0.059092
     17 H6         -3.6820    3.1750    3.9510 hc        1 MOL      0.039485
     18 H7         -3.3980    1.4230    3.8750 hc        1 MOL      0.039485
     19 N2         -1.9610    4.1380    1.1110 n         1 MOL     -0.279625
     20 C7         -2.1790    5.2920    0.2720 c3        1 MOL     -0.152645
     21 C8         -3.0680    5.1670   -1.0630 c         1 MOL      0.465265
     22 O5         -3.2670    6.1140   -1.8060 o         1 MOL     -0.501475
     23 C9         -0.7580    5.8920   -0.0160 c3        1 MOL      0.264652
     24 C10        -0.8340    7.3990   -0.2590 c3        1 MOL      0.192165
     25 C11        -0.1510    5.1710   -1.1990 c3        1 MOL     -0.368351
     26 C12        -1.3920    8.3080    0.8310 c3        1 MOL     -0.236989
     27 H8         -2.0020    3.2250    0.6880 hn        1 MOL      0.551596
     28 H9         -2.6510    6.0280    0.9230 h1        1 MOL      0.078737
     29 H10        -0.1400    5.7530    0.8630 hc        1 MOL     -0.000998
     30 H11        -1.4100    7.6370   -1.1470 hc        1 MOL     -0.061521
     31 H12         0.2110    7.6400   -0.4590 hc        1 MOL     -0.061521
     32 H13        -0.5290    4.1550   -1.2620 hc        1 MOL      0.085655
     33 H14        -0.2940    5.6880   -2.1560 hc        1 MOL      0.085655
     34 H15         0.9110    5.0340   -0.9660 hc        1 MOL      0.085655
     35 H16        -1.5400    9.2950    0.4020 hc        1 MOL      0.038562
     36 H17        -2.3530    8.0300    1.2530 hc        1 MOL      0.038562
     37 H18        -0.6250    8.2370    1.6080 hc        1 MOL      0.038562
     38 N3         -3.7230    3.9850   -1.2380 n         1 MOL     -0.281625
     39 C13        -4.5800    3.7000   -2.4410 c3        1 MOL      0.113751
     40 C14        -5.9090    3.0870   -2.1500 c         1 MOL      0.451491
     41 O6         -6.8730    3.3040   -2.8510 o         1 MOL     -0.562398
     42 C15        -3.8170    2.9540   -3.4910 c3        1 MOL     -0.034136
     43 C16        -3.0350    1.7280   -3.1260 c         1 MOL      0.664362
     44 O7         -3.4530    1.0750   -2.1440 o         1 MOL     -0.652958
     45 O8         -2.0790    1.3720   -3.8430 o         1 MOL     -0.652958
     46 H19        -3.5420    3.1890   -0.6490 hn        1 MOL     -0.048362
     47 H20        -4.8850    4.6540   -2.8770 h1        1 MOL      0.051695
     48 H21        -3.1870    3.6300   -4.0710 hc        1 MOL      0.006724
     49 H22        -4.5970    2.7220   -4.2210 hc        1 MOL      0.006724
     50 N4         -6.0590    2.2750   -1.0830 n         1 MOL     -0.157918
     51 C17        -7.3470    1.6360   -0.7210 c3        1 MOL     -0.209769
     52 C18        -7.6280    0.2310   -1.1620 c         1 MOL      0.533519
     53 O9         -8.6410   -0.3960   -0.7880 o         1 MOL     -0.629218
     54 H23        -5.2540    2.0260   -0.5220 hn        1 MOL      0.141727
     55 H24        -8.1920    2.2460   -1.0530 h1        1 MOL      0.108760
     56 H25        -7.3850    1.6200    0.3630 h1        1 MOL      0.108760
     57 N5         -6.6100   -0.4310   -1.7200 n         1 MOL     -0.284372
     58 C19        -6.6510   -1.8260   -2.2190 c3        1 MOL     -0.027300
     59 C20        -6.6080   -2.9240   -1.1790 c         1 MOL      0.411338
     60 O10        -6.8620   -4.0300   -1.6830 o         1 MOL     -0.523535
     61 C21        -5.5730   -2.0020   -3.2920 c3        1 MOL     -0.341097
     62 C22        -4.1140   -1.8430   -2.7880 c         1 MOL      0.718515
     63 O11        -3.8520   -1.7180   -1.6020 o         1 MOL     -0.688098
     64 O12        -3.2660   -2.2110   -3.6720 o         1 MOL     -0.688098
     65 H26        -5.7810    0.1180   -1.8830 hn        1 MOL      0.196144
     66 H27        -7.6550   -1.8980   -2.6330 h1        1 MOL      0.111323
     67 H28        -5.7550   -1.2920   -4.1030 hc        1 MOL      0.105678
     68 H29        -5.8440   -2.9740   -3.7140 hc        1 MOL      0.105678
     69 N6         -6.4510   -2.6580    0.1440 n         1 MOL     -0.048465
     70 C23        -6.7410   -3.6300    1.1960 c3        1 MOL     -0.343833
     71 C24        -5.6100   -4.5970    1.4300 c         1 MOL      0.671131
     72 O13        -5.7910   -5.7560    1.9050 o         1 MOL     -0.580213
     73 H30        -6.4210   -1.6960    0.4400 hn        1 MOL      0.245951
     74 H31        -7.6220   -4.1900    0.9060 h1        1 MOL      0.109732
     75 H32        -6.9250   -3.0620    2.1050 h1        1 MOL      0.109732
     76 N7         -4.4110   -4.0910    1.2690 n         1 MOL     -0.532876
     77 C25        -3.1210   -4.7820    1.2780 c3        1 MOL      0.023723
     78 C26        -2.0330   -3.7590    1.2660 c         1 MOL      0.640730
     79 O14        -2.0770   -2.7510    0.5770 o         1 MOL     -0.590057
     80 C27        -3.0320   -5.6720    0.0990 c3        1 MOL     -0.458719
     81 C28        -3.2480   -4.9450   -1.2560 c3        1 MOL      0.112489
     82 C29        -3.3450   -5.8010   -2.5180 c         1 MOL      0.584388
     83 N8         -3.2180   -5.2430   -3.6820 n         1 MOL     -0.732079
     84 O15        -3.3930   -6.9960   -2.5230 o         1 MOL     -0.613811
     85 H33        -4.3740   -3.0810    1.1670 hn        1 MOL      0.320008
     86 H34        -3.1300   -5.4330    2.1560 h1        1 MOL      0.066845
     87 H35        -3.8490   -6.3850    0.1040 hc        1 MOL      0.149512
     88 H36        -2.0340   -6.1170    0.1330 hc        1 MOL      0.149512
     89 H37        -2.4310   -4.2590   -1.4580 hc        1 MOL      0.069764
     90 H38        -4.2030   -4.4160   -1.2300 hc        1 MOL      0.069764
     91 H39        -3.1980   -4.2510   -3.8550 hn        1 MOL      0.328158
     92 H40        -3.6230   -5.8390   -4.3970 hn        1 MOL      0.328158
     93 N9         -1.0060   -3.9750    2.0630 n         1 MOL     -0.501874
     94 C30         0.1820   -3.0580    2.2910 c3        1 MOL      0.093023
     95 C31         1.2820   -3.5140    1.3070 c         1 MOL      0.516443
     96 O16         1.5790   -4.7440    1.2350 o         1 MOL     -0.598451
     97 C32         0.7170   -2.9740    3.7600 c3        1 MOL      0.021424
     98 C33         1.5500   -1.7170    3.8630 c3        1 MOL     -0.127967
     99 C34        -0.2470   -3.0540    4.9600 c3        1 MOL     -0.127967
    100 H41        -1.0440   -4.8200    2.6190 hn        1 MOL      0.287072
    101 H42        -0.1370   -2.0650    1.9770 h1        1 MOL      0.162101
    102 H43         1.3390   -3.8660    3.8290 hc        1 MOL      0.006222
    103 H44         2.4270   -1.7440    3.2120 hc        1 MOL      0.028980
    104 H45         1.0270   -0.8270    3.4980 hc        1 MOL      0.028980
    105 H46         2.0090   -1.5980    4.8440 hc        1 MOL      0.028980
    106 H47        -1.0850   -3.7130    4.7520 hc        1 MOL      0.028980
    107 H48         0.1950   -3.4210    5.8920 hc        1 MOL      0.028980
    108 H49        -0.6130   -2.0470    5.1760 hc        1 MOL      0.028980
    109 N10         1.8720   -2.5770    0.6020 n         1 MOL     -0.232966
    110 C35         2.8650   -2.7100   -0.4150 c3        1 MOL      0.238607
    111 C36         4.1520   -2.1570   -0.0160 c         1 MOL      0.183108
    112 O17         4.2330   -1.3900    0.9830 o         1 MOL     -0.243630
    113 C37         2.2450   -2.1890   -1.7390 c3        1 MOL     -0.221218
    114 C38         2.5730   -0.7750   -2.0590 c         1 MOL      0.668734
    115 N11         1.6480    0.1070   -2.3660 n         1 MOL     -0.723103
    116 O18         3.7210   -0.4570   -2.2760 o         1 MOL     -0.555266
    117 H50         1.5260   -1.6450    0.7430 hn        1 MOL      0.067828
    118 H51         2.9490   -3.7900   -0.5290 h1        1 MOL      0.032505
    119 H52         1.1590   -2.2930   -1.7690 hc        1 MOL      0.075541
    120 H53         2.6920   -2.7490   -2.5450 hc        1 MOL      0.075541
    121 H54         0.6760   -0.1210   -2.2550 hn        1 MOL      0.394946
    122 H55         1.8880    1.0750   -2.5130 hn        1 MOL      0.394946
    123 N12         5.2460   -2.4180   -0.7830 n         1 MOL     -0.418983
    124 C39         6.6030   -1.9630   -0.4460 c3        1 MOL      0.202043
    125 C40         6.8460   -0.3690   -0.3050 c         1 MOL      0.544926
    126 O19         7.7480   -0.0330    0.4850 o         1 MOL     -0.538207
    127 C41         7.5690   -2.6220   -1.3420 c3        1 MOL     -0.187563
    128 C42         9.0990   -2.3550   -1.1510 ca        1 MOL     -0.039031
    129 C43         9.8360   -2.8880   -0.1170 ca        1 MOL     -0.096119
    130 C44         9.7120   -1.6500   -2.2450 ca        1 MOL     -0.096119
    131 C45        11.2230   -2.6920   -0.1710 ca        1 MOL     -0.320019
    132 C46        11.0680   -1.3980   -2.2300 ca        1 MOL     -0.320019
    133 C47        11.8030   -1.8870   -1.1840 ca        1 MOL      0.474029
    134 O20        13.0820   -1.6310   -1.2640 oh        1 MOL     -0.591352
    135 H56         5.1140   -3.0460   -1.5630 hn        1 MOL      0.286871
    136 H57         6.8080   -2.2750    0.5740 h1        1 MOL      0.035957
    137 H58         7.2330   -2.3000   -2.3330 hc        1 MOL      0.059026
    138 H59         7.4490   -3.7040   -1.3360 hc        1 MOL      0.059026
    139 H60         9.3330   -3.3650    0.7140 ha        1 MOL      0.134271
    140 H61         9.1210   -1.4090   -3.1160 ha        1 MOL      0.134271
    141 H62        11.8370   -3.2400    0.5390 ha        1 MOL      0.137638
    142 H63        11.5520   -0.8230   -3.0140 ha        1 MOL      0.137638
    143 H64        13.4160   -1.2560   -2.0760 ho        1 MOL      0.406939
    144 N13         5.9880    0.5100   -0.8460 n         1 MOL     -0.239271
    145 C48         6.0810    1.9420   -0.6790 c3        1 MOL     -0.273865
    146 C49         5.3140    2.3860    0.5800 c         1 MOL      0.350383
    147 O21         5.5510    3.4220    1.1970 o         1 MOL     -0.530991
    148 C50         5.5510    2.5800   -1.9500 c3        1 MOL      0.457092
    149 C51         6.3530    2.4140   -3.2140 c3        1 MOL     -0.416647
    150 C52         5.6890    3.1350   -4.4310 c         1 MOL      0.704866
    151 O22         4.4440    3.2110   -4.5580 o         1 MOL     -0.727076
    152 O23         6.4410    3.8290   -5.1740 o         1 MOL     -0.727076
    153 H65         5.2270    0.1580   -1.4100 hn        1 MOL      0.178290
    154 H66         7.1200    2.2290   -0.5550 h1        1 MOL      0.133794
    155 H67         5.4380    3.6450   -1.7570 hc        1 MOL     -0.046623
    156 H68         4.5010    2.2820   -2.0400 hc        1 MOL     -0.046623
    157 H69         6.4530    1.3390   -3.3380 hc        1 MOL      0.043447
    158 H70         7.3710    2.7690   -3.0200 hc        1 MOL      0.043447
    159 N14         4.3980    1.5430    1.0520 n         1 MOL     -0.029504
    160 C53         3.5320    1.8830    2.1950 c3        1 MOL     -0.149208
    161 C54         4.1470    1.2300    3.4400 c         1 MOL      0.526039
    162 O24         3.9830    1.6770    4.4990 o         1 MOL     -0.594368
    163 C55         2.0960    1.4570    2.0280 c3        1 MOL     -0.025985
    164 C56         1.4520    2.1390    0.8050 c3        1 MOL      0.240541
    165 C57         0.1860    1.3060    0.3090 c         1 MOL      0.650851
    166 O25        -0.8470    1.9130   -0.1410 o         1 MOL     -0.778712
    167 O26         0.1940    0.0300    0.3740 o         1 MOL     -0.778712
    168 H71         4.3970    0.6180    0.6490 hn        1 MOL      0.080652
    169 H72         3.5300    2.9540    2.4090 h1        1 MOL      0.110140
    170 H73         1.4970    1.6920    2.9200 hc        1 MOL      0.034047
    171 H74         2.0430    0.3770    2.0590 hc        1 MOL      0.034047
    172 H75         2.0970    2.1200   -0.0820 hc        1 MOL     -0.099283
    173 H76         1.1120    3.1380    1.0560 hc        1 MOL     -0.099283
    174 N15         4.8960    0.1810    3.2860 n         1 MOL     -0.100500
    175 C58         5.4460   -0.7280    4.3520 c3        1 MOL     -0.082728
    176 H77         6.5110   -0.5350    4.4790 h1        1 MOL      0.054316
    177 H78         4.9280   -0.5410    5.2920 h1        1 MOL      0.054316
    178 H79         5.2980   -1.7670    4.0550 h1        1 MOL      0.054316
    179 H80         4.8230   -0.1520    2.3410 hn        1 MOL     -0.036578
    180 Ca1        -2.4930   -0.1520   -0.1180 Ca        1 MOL      1.713271
    181 O27        -2.3160   -0.7450    2.6770 oh        1 MOL     -0.889434
    182 H81        -3.0760   -0.7830    3.2570 ho        1 MOL      0.410300
    183 H82        -1.6950   -0.1720    3.1350 ho        1 MOL      0.410300
    184 O28        -1.1450   -0.9440   -2.5820 oh        1 MOL     -0.889434
    185 H83        -1.8170   -1.6040   -2.7440 ho        1 MOL      0.410300
    186 H84        -1.4090   -0.1980   -3.1120 ho        1 MOL      0.410300
    187 O29        -4.7710   -0.6150    1.5060 oh        1 MOL     -0.889434
    188 H85        -4.6500   -0.9040    2.4080 ho        1 MOL      0.410300
    189 H86        -5.1780    0.2510    1.5850 ho        1 MOL      0.410300
@<TRIPOS>BOND
     1    1    2 1   
     2    1    4 1   
     3    1    5 1   
     4    1    6 1   
     5    2    3 2   
     6    2    7 1   
     7    7    8 1   
     8    7   15 1   
     9    8    9 1   
    10    8   11 1   
    11    8   16 1   
    12    9   10 2   
    13    9   19 1   
    14   11   12 1   
    15   11   17 1   
    16   11   18 1   
    17   12   13 1   
    18   12   14 1   
    19   19   20 1   
    20   19   27 1   
    21   20   21 1   
    22   20   23 1   
    23   20   28 1   
    24   21   22 2   
    25   21   38 1   
    26   23   24 1   
    27   23   25 1   
    28   23   29 1   
    29   24   26 1   
    30   24   30 1   
    31   24   31 1   
    32   25   32 1   
    33   25   33 1   
    34   25   34 1   
    35   26   35 1   
    36   26   36 1   
    37   26   37 1   
    38   38   39 1   
    39   38   46 1   
    40   39   40 1   
    41   39   42 1   
    42   39   47 1   
    43   40   41 2   
    44   40   50 1   
    45   42   43 1   
    46   42   48 1   
    47   42   49 1   
    48   43   44 1   
    49   43   45 1   
    50   50   51 1   
    51   50   54 1   
    52   51   52 1   
    53   51   55 1   
    54   51   56 1   
    55   52   53 2   
    56   52   57 1   
    57   57   58 1   
    58   57   65 1   
    59   58   59 1   
    60   58   61 1   
    61   58   66 1   
    62   59   60 2   
    63   59   69 1   
    64   61   62 1   
    65   61   67 1   
    66   61   68 1   
    67   62   63 1   
    68   62   64 1   
    69   69   70 1   
    70   69   73 1   
    71   70   71 1   
    72   70   74 1   
    73   70   75 1   
    74   71   72 2   
    75   71   76 1   
    76   76   77 1   
    77   76   85 1   
    78   77   78 1   
    79   77   80 1   
    80   77   86 1   
    81   78   79 2   
    82   78   93 1   
    83   80   81 1   
    84   80   87 1   
    85   80   88 1   
    86   81   82 1   
    87   81   89 1   
    88   81   90 1   
    89   82   83 1   
    90   82   84 2   
    91   83   91 1   
    92   83   92 1   
    93   93   94 1   
    94   93  100 1   
    95   94   95 1   
    96   94   97 1   
    97   94  101 1   
    98   95   96 2   
    99   95  109 1   
   100   97   98 1   
   101   97   99 1   
   102   97  102 1   
   103   98  103 1   
   104   98  104 1   
   105   98  105 1   
   106   99  106 1   
   107   99  107 1   
   108   99  108 1   
   109  109  110 1   
   110  109  117 1   
   111  110  111 1   
   112  110  113 1   
   113  110  118 1   
   114  111  112 2   
   115  111  123 1   
   116  113  114 1   
   117  113  119 1   
   118  113  120 1   
   119  114  115 1   
   120  114  116 2   
   121  115  121 1   
   122  115  122 1   
   123  123  124 1   
   124  123  135 1   
   125  124  125 1   
   126  124  127 1   
   127  124  136 1   
   128  125  126 2   
   129  125  144 1   
   130  127  128 1   
   131  127  137 1   
   132  127  138 1   
   133  128  129 ar  
   134  128  130 ar  
   135  129  131 ar  
   136  129  139 1   
   137  130  132 ar  
   138  130  140 1   
   139  131  133 ar  
   140  131  141 1   
   141  132  133 ar  
   142  132  142 1   
   143  133  134 1   
   144  134  143 1   
   145  144  145 1   
   146  144  153 1   
   147  145  146 1   
   148  145  148 1   
   149  145  154 1   
   150  146  147 2   
   151  146  159 1   
   152  148  149 1   
   153  148  155 1   
   154  148  156 1   
   155  149  150 1   
   156  149  157 1   
   157  149  158 1   
   158  150  151 1   
   159  150  152 1   
   160  159  160 1   
   161  159  168 1   
   162  160  161 1   
   163  160  163 1   
   164  160  169 1   
   165  161  162 2   
   166  161  174 1   
   167  163  164 1   
   168  163  170 1   
   169  163  171 1   
   170  164  165 1   
   171  164  172 1   
   172  164  173 1   
   173  165  166 1   
   174  165  167 1   
   175  174  175 1   
   176  174  179 1   
   177  175  176 1   
   178  175  177 1   
   179  175  178 1   
   180  181  182 1   
   181  181  183 1   
   182  184  185 1   
   183  184  186 1   
   184  187  188 1   
   185  187  189 1   
@<TRIPOS>SUBSTRUCTURE
     1 MOL         1 TEMP              0 ****  ****    0 ROOT
