@<TRIPOS>MOLECULE
MOL
  179   176     1     0     0
SMALL
resp


@<TRIPOS>ATOM
      1 C1         -0.8110   -5.3620   -4.5040 c3        1 MOL     -0.407352
      2 C2         -0.8980   -4.4780   -3.2810 c         1 MOL      0.632583
      3 O1         -0.3060   -4.7680   -2.2390 o         1 MOL     -0.557488
      4 H1         -1.7930   -5.4330   -4.9710 hc        1 MOL      0.098725
      5 H2         -0.1030   -4.9330   -5.2140 hc        1 MOL      0.098725
      6 H3         -0.4750   -6.3560   -4.2110 hc        1 MOL      0.098725
      7 N1         -1.7790   -3.4770   -3.3190 n         1 MOL     -0.333122
      8 C3         -2.1350   -2.7310   -2.0930 c3        1 MOL      0.102016
      9 C4         -3.2480   -3.5510   -1.4000 c         1 MOL      0.239393
     10 O2         -4.4550   -3.4050   -1.6080 o         1 MOL     -0.436369
     11 C5         -2.6650   -1.3290   -2.4890 c3        1 MOL     -0.080764
     12 C6         -3.2500   -0.4610   -1.3800 c         1 MOL      0.645245
     13 O3         -2.7000   -0.5380   -0.2420 o         1 MOL     -0.672055
     14 O4         -4.1910    0.2950   -1.6480 o         1 MOL     -0.672055
     15 H4         -2.3810   -3.3950   -4.1280 hn        1 MOL      0.253210
     16 H5         -1.2580   -2.5760   -1.4620 h1        1 MOL      0.051825
     17 H6         -3.4090   -1.4300   -3.2690 hc        1 MOL      0.014690
     18 H7         -1.9180   -0.7260   -3.0020 hc        1 MOL      0.014690
     19 N2         -2.8440   -4.5540   -0.5660 n         1 MOL     -0.312043
     20 C7         -3.7610   -5.4280    0.1470 c3        1 MOL      0.314376
     21 C8         -4.5740   -4.6700    1.2240 c         1 MOL      0.240301
     22 O5         -5.6750   -4.9360    1.5210 o         1 MOL     -0.499721
     23 C9         -2.8770   -6.5410    0.7430 c3        1 MOL     -0.333126
     24 C10        -1.7680   -7.1850   -0.1160 c3        1 MOL      0.039030
     25 C11        -2.2680   -7.7230   -1.4710 c3        1 MOL     -0.097902
     26 C12        -3.2600   -8.8410   -1.2770 c3        1 MOL      0.046391
     27 N3         -4.0750   -9.1090   -2.5270 n4        1 MOL     -0.392671
     28 H8         -1.8820   -4.6350   -0.2900 hn        1 MOL      0.290294
     29 H9         -4.5390   -5.7730   -0.5290 h1        1 MOL      0.002747
     30 H10        -3.5840   -7.3240    1.0430 hc        1 MOL      0.091460
     31 H11        -2.3280   -6.1870    1.6140 hc        1 MOL      0.091460
     32 H12        -1.2630   -7.9340    0.4920 hc        1 MOL      0.052003
     33 H13        -0.9680   -6.5210   -0.4450 hc        1 MOL      0.052003
     34 H14        -1.4160   -8.2800   -1.8480 hc        1 MOL      0.048973
     35 H15        -2.5340   -6.8880   -2.1160 hc        1 MOL      0.048973
     36 H16        -3.9440   -8.6310   -0.4660 hx        1 MOL      0.083845
     37 H17        -2.6270   -9.6700   -0.9500 hx        1 MOL      0.083845
     38 H18        -4.5490   -8.2930   -2.8910 hn        1 MOL      0.333697
     39 H19        -3.6190   -9.6090   -3.2790 hn        1 MOL      0.333697
     40 H20        -4.8780   -9.6820   -2.3190 hn        1 MOL      0.333697
     41 N4         -3.9690   -3.6550    1.8940 n         1 MOL     -0.135719
     42 C13        -4.7660   -2.8830    2.9670 c3        1 MOL     -0.078845
     43 C14        -5.7970   -1.9230    2.4690 c         1 MOL      0.443311
     44 O6         -6.6090   -1.3930    3.2000 o         1 MOL     -0.502524
     45 C15        -3.7210   -2.1950    3.9200 c3        1 MOL     -0.281538
     46 C16        -2.7980   -1.2100    3.1720 c         1 MOL      0.701373
     47 O7         -3.2980   -0.2420    2.6170 o         1 MOL     -0.700435
     48 O8         -1.6090   -1.5590    3.0360 o         1 MOL     -0.700435
     49 H21        -2.9710   -3.6320    1.7170 hn        1 MOL      0.174121
     50 H22        -5.1840   -3.6740    3.5920 h1        1 MOL      0.139680
     51 H23        -3.1330   -3.0030    4.3480 hc        1 MOL      0.080676
     52 H24        -4.3080   -1.5940    4.6170 hc        1 MOL      0.080676
     53 N5         -5.7290   -1.5550    1.1060 n         1 MOL      0.040826
     54 C17        -6.8670   -0.8580    0.4960 c3        1 MOL     -0.488455
     55 C18        -6.8960    0.6590    0.6450 c         1 MOL      0.633231
     56 O9         -7.8790    1.3470    0.3010 o         1 MOL     -0.585182
     57 H25        -5.0290   -1.9830    0.5100 hn        1 MOL      0.146458
     58 H26        -7.8190   -1.1860    0.9110 h1        1 MOL      0.165090
     59 H27        -6.7070   -1.0630   -0.5630 h1        1 MOL      0.165090
     60 N6         -5.7860    1.1800    1.1880 n         1 MOL     -0.274587
     61 C19        -5.6150    2.5720    1.5200 c3        1 MOL     -0.015286
     62 C20        -5.1960    3.4610    0.3180 c         1 MOL      0.370628
     63 O10        -5.1950    4.6730    0.5480 o         1 MOL     -0.495054
     64 C21        -4.6080    2.6990    2.7570 c3        1 MOL     -0.260413
     65 C22        -3.1910    3.2150    2.4540 c         1 MOL      0.488710
     66 N7         -2.7150    4.2220    3.1940 n         1 MOL     -0.620152
     67 O11        -2.4810    2.6270    1.6120 o         1 MOL     -0.589941
     68 H28        -5.0860    0.4620    1.2860 hn        1 MOL      0.220556
     69 H29        -6.6020    2.9300    1.8070 h1        1 MOL      0.119589
     70 H30        -4.4650    1.7840    3.3240 hc        1 MOL      0.119074
     71 H31        -5.0490    3.3600    3.4980 hc        1 MOL      0.119074
     72 H32        -3.3730    4.7470    3.7580 hn        1 MOL      0.336458
     73 H33        -1.7470    4.5100    3.1160 hn        1 MOL      0.336458
     74 N8         -4.8820    2.9260   -0.8910 n         1 MOL     -0.218285
     75 C23        -4.6010    3.5930   -2.1960 c3        1 MOL     -0.212184
     76 C24        -3.1220    3.9090   -2.3990 c         1 MOL      0.537199
     77 O12        -2.8760    4.3860   -3.5170 o         1 MOL     -0.599577
     78 H34        -4.6650    1.9400   -0.8650 hn        1 MOL      0.251164
     79 H35        -5.0750    4.5660   -2.3480 h1        1 MOL      0.136278
     80 H36        -4.9360    2.9760   -3.0300 h1        1 MOL      0.136278
     81 N9         -2.2520    3.7690   -1.4210 n         1 MOL     -0.201054
     82 C25        -0.8100    4.0790   -1.5700 c3        1 MOL      0.370470
     83 C26        -0.0790    2.7480   -1.2960 c         1 MOL      0.201095
     84 O13        -0.5550    1.8770   -0.5390 o         1 MOL     -0.530816
     85 C27        -0.3010    5.2490   -0.6510 c3        1 MOL      0.034979
     86 C28        -1.0870    6.4740   -0.9520 ca        1 MOL      0.063359
     87 C29        -2.1400    6.7640   -0.1150 ca        1 MOL     -0.244369
     88 C30        -0.7880    7.3950   -1.9540 ca        1 MOL     -0.244369
     89 C31        -2.9560    7.8930   -0.3390 ca        1 MOL     -0.192006
     90 C32        -1.4840    8.6210   -2.1360 ca        1 MOL     -0.192006
     91 C33        -2.6060    8.8110   -1.3340 ca        1 MOL      0.304372
     92 O14        -3.4540    9.8550   -1.5870 oh        1 MOL     -0.488940
     93 H37        -2.5120    3.3240   -0.5440 hn        1 MOL      0.180701
     94 H38        -0.4690    4.4820   -2.5290 h1        1 MOL     -0.036228
     95 H39         0.7510    5.4470   -0.8780 hc        1 MOL     -0.009292
     96 H40        -0.3940    4.9590    0.3950 hc        1 MOL     -0.009292
     97 H41        -2.5270    6.0500    0.6030 ha        1 MOL      0.146803
     98 H42         0.0290    7.1720   -2.6330 ha        1 MOL      0.146803
     99 H43        -3.8180    8.0800    0.2800 ha        1 MOL      0.132095
    100 H44        -1.2360    9.4460   -2.7810 ha        1 MOL      0.132095
    101 H45        -3.1240   10.4160   -2.2990 ho        1 MOL      0.358239
    102 N10         1.1570    2.6470   -1.7590 n         1 MOL     -0.372807
    103 C34         2.2050    1.6190   -1.4530 c3        1 MOL      0.045439
    104 C35         3.5270    2.3160   -1.0240 c         1 MOL      0.583951
    105 O15         3.8310    3.3450   -1.5820 o         1 MOL     -0.569956
    106 C36         2.2500    0.7810   -2.7740 c3        1 MOL     -0.046601
    107 C37         1.0340   -0.1190   -3.0300 c3        1 MOL      0.070049
    108 C38         3.4890   -0.0130   -2.7760 c3        1 MOL      0.006649
    109 C39         1.0770   -1.0470   -4.2950 c3        1 MOL     -0.369761
    110 H46         1.3990    3.2910   -2.5040 hn        1 MOL      0.276686
    111 H47         1.8650    0.9890   -0.6290 h1        1 MOL      0.148851
    112 H48         2.2650    1.5080   -3.5880 hc        1 MOL      0.027826
    113 H49         0.1740    0.5490   -3.1890 hc        1 MOL      0.056354
    114 H50         0.7080   -0.7900   -2.2380 hc        1 MOL      0.056354
    115 H51         3.5620   -0.6420   -3.6720 hc        1 MOL      0.001409
    116 H52         4.3580    0.6280   -2.8980 hc        1 MOL      0.001409
    117 H53         3.5160   -0.7800   -2.0060 hc        1 MOL      0.001409
    118 H54         1.6430   -1.9610   -4.1300 hc        1 MOL      0.083808
    119 H55         0.0490   -1.3550   -4.4360 hc        1 MOL      0.083808
    120 H56         1.5560   -0.4820   -5.0920 hc        1 MOL      0.083808
    121 N11         4.2590    1.8760   -0.0080 n         1 MOL     -0.405218
    122 C40         5.5330    2.4120    0.4550 c3        1 MOL      0.155422
    123 C41         6.7010    1.6280   -0.0510 c         1 MOL      0.412226
    124 O16         6.4820    0.4770   -0.5860 o         1 MOL     -0.429899
    125 C42         5.4990    2.4830    1.9660 c3        1 MOL      0.015687
    126 O17         5.5460    1.2090    2.4850 oh        1 MOL     -0.467622
    127 H57         3.9880    0.9890    0.3950 hn        1 MOL      0.187253
    128 H58         5.6870    3.4500    0.1670 h1        1 MOL      0.053932
    129 H59         4.5580    2.9540    2.2510 h1        1 MOL      0.041534
    130 H60         6.2180    3.2250    2.3160 h1        1 MOL      0.041534
    131 H61         5.3370    1.3260    3.4140 ho        1 MOL      0.398700
    132 N12         7.9320    2.0910    0.0550 n         1 MOL     -0.466515
    133 C43         9.0820    1.3180   -0.5020 c3        1 MOL      0.193154
    134 C44         9.4570    0.0680    0.3450 c         1 MOL      0.436799
    135 O18        10.1020   -0.8310   -0.2120 o         1 MOL     -0.507847
    136 C45        10.1900    2.2690   -0.9410 c3        1 MOL     -0.234119
    137 H62         8.0110    3.0020    0.4890 hn        1 MOL      0.291512
    138 H63         8.6990    0.8990   -1.4360 h1        1 MOL      0.094877
    139 H64         9.8730    3.1760   -1.4580 hc        1 MOL      0.072462
    140 H65        10.8500    2.5860   -0.1390 hc        1 MOL      0.072462
    141 H66        10.7770    1.6470   -1.6260 hc        1 MOL      0.072462
    142 N13         8.8300   -0.0870    1.4980 n         1 MOL     -0.455329
    143 C46         8.7220   -1.3780    2.1950 c3        1 MOL      0.325615
    144 C47         7.5710   -2.2510    1.7030 c         1 MOL      0.278310
    145 O19         7.7850   -3.4600    1.5520 o         1 MOL     -0.502063
    146 C48         8.5230   -1.0990    3.7170 c3        1 MOL     -0.357368
    147 H67         8.2860    0.7000    1.8160 hn        1 MOL      0.230187
    148 H68         9.6130   -1.9940    2.0430 h1        1 MOL      0.060351
    149 H69         7.7180   -0.3970    3.9290 hc        1 MOL      0.094374
    150 H70         8.3580   -2.0210    4.2760 hc        1 MOL      0.094374
    151 H71         9.4980   -0.7770    4.0910 hc        1 MOL      0.094374
    152 N14         6.3570   -1.7080    1.5460 n         1 MOL     -0.056680
    153 C49         5.0950   -2.3990    1.0720 c3        1 MOL     -0.291072
    154 C50         5.1820   -2.9220   -0.3410 c         1 MOL      0.515346
    155 O20         4.7530   -4.0530   -0.6420 o         1 MOL     -0.564274
    156 C51         3.8790   -1.5540    1.2550 c3        1 MOL      0.190210
    157 C52         2.5260   -2.2270    0.9170 c3        1 MOL     -0.320172
    158 C53         1.3910   -1.3030    1.1900 c         1 MOL      0.854356
    159 O21         1.3310   -0.6360    2.2490 o         1 MOL     -0.783326
    160 O22         0.5630   -1.1210    0.3090 o         1 MOL     -0.783326
    161 H72         6.2900   -0.7250    1.7450 hn        1 MOL      0.048754
    162 H73         4.9980   -3.2540    1.7500 h1        1 MOL      0.154463
    163 H74         4.0700   -0.6240    0.7210 hc        1 MOL     -0.010976
    164 H75         3.7620   -1.2600    2.2990 hc        1 MOL     -0.010976
    165 H76         2.4300   -3.1050    1.5610 hc        1 MOL      0.084875
    166 H77         2.5500   -2.5100   -0.1390 hc        1 MOL      0.084875
    167 N15         5.9590   -2.2940   -1.2230 n         1 MOL     -0.009475
    168 C54         6.3230   -2.7960   -2.5970 c3        1 MOL     -0.340830
    169 H78         5.4340   -2.8080   -3.2260 h1        1 MOL      0.122342
    170 H79         7.0710   -2.1360   -3.0380 h1        1 MOL      0.122342
    171 H80         6.7280   -3.8050   -2.5200 h1        1 MOL      0.122342
    172 H81         6.2320   -1.3430   -1.0250 hn        1 MOL      0.103789
    173 Ca1        -1.0120    0.5400    1.5610 Ca        1 MOL      1.645419
    174 O23        -0.7720    1.2820    4.3160 oh        1 MOL     -0.760070
    175 H82        -0.7040    0.3980    4.6800 ho        1 MOL      0.383463
    176 H83        -1.1520    1.8040    5.0190 ho        1 MOL      0.383463
    177 O24         1.2440    2.1340    2.1370 oh        1 MOL     -0.760070
    178 H84         1.6530    2.9890    2.0680 ho        1 MOL      0.383463
    179 H85         1.4600    1.8220    3.0100 ho        1 MOL      0.383463
@<TRIPOS>BOND
     1    1    2 1   
     2    1    4 1   
     3    1    5 1   
     4    1    6 1   
     5    2    3 2   
     6    2    7 1   
     7    7    8 1   
     8    7   15 1   
     9    8    9 1   
    10    8   11 1   
    11    8   16 1   
    12    9   10 2   
    13    9   19 1   
    14   11   12 1   
    15   11   17 1   
    16   11   18 1   
    17   12   13 1   
    18   12   14 1   
    19   19   20 1   
    20   19   28 1   
    21   20   21 1   
    22   20   23 1   
    23   20   29 1   
    24   21   22 2   
    25   21   41 1   
    26   23   24 1   
    27   23   30 1   
    28   23   31 1   
    29   24   25 1   
    30   24   32 1   
    31   24   33 1   
    32   25   26 1   
    33   25   34 1   
    34   25   35 1   
    35   26   27 1   
    36   26   36 1   
    37   26   37 1   
    38   27   38 1   
    39   27   39 1   
    40   27   40 1   
    41   41   42 1   
    42   41   49 1   
    43   42   43 1   
    44   42   45 1   
    45   42   50 1   
    46   43   44 2   
    47   43   53 1   
    48   45   46 1   
    49   45   51 1   
    50   45   52 1   
    51   46   47 1   
    52   46   48 1   
    53   53   54 1   
    54   53   57 1   
    55   54   55 1   
    56   54   58 1   
    57   54   59 1   
    58   55   56 2   
    59   55   60 1   
    60   60   61 1   
    61   60   68 1   
    62   61   62 1   
    63   61   64 1   
    64   61   69 1   
    65   62   63 2   
    66   62   74 1   
    67   64   65 1   
    68   64   70 1   
    69   64   71 1   
    70   65   66 1   
    71   65   67 2   
    72   66   72 1   
    73   66   73 1   
    74   74   75 1   
    75   74   78 1   
    76   75   76 1   
    77   75   79 1   
    78   75   80 1   
    79   76   77 2   
    80   76   81 1   
    81   81   82 1   
    82   81   93 1   
    83   82   83 1   
    84   82   85 1   
    85   82   94 1   
    86   83   84 2   
    87   83  102 1   
    88   85   86 1   
    89   85   95 1   
    90   85   96 1   
    91   86   87 ar  
    92   86   88 ar  
    93   87   89 ar  
    94   87   97 1   
    95   88   90 ar  
    96   88   98 1   
    97   89   91 ar  
    98   89   99 1   
    99   90   91 ar  
   100   90  100 1   
   101   91   92 1   
   102   92  101 1   
   103  102  103 1   
   104  102  110 1   
   105  103  104 1   
   106  103  106 1   
   107  103  111 1   
   108  104  105 2   
   109  104  121 1   
   110  106  107 1   
   111  106  108 1   
   112  106  112 1   
   113  107  109 1   
   114  107  113 1   
   115  107  114 1   
   116  108  115 1   
   117  108  116 1   
   118  108  117 1   
   119  109  118 1   
   120  109  119 1   
   121  109  120 1   
   122  121  122 1   
   123  121  127 1   
   124  122  123 1   
   125  122  125 1   
   126  122  128 1   
   127  123  124 2   
   128  123  132 1   
   129  125  126 1   
   130  125  129 1   
   131  125  130 1   
   132  126  131 1   
   133  132  133 1   
   134  132  137 1   
   135  133  134 1   
   136  133  136 1   
   137  133  138 1   
   138  134  135 2   
   139  134  142 1   
   140  136  139 1   
   141  136  140 1   
   142  136  141 1   
   143  142  143 1   
   144  142  147 1   
   145  143  144 1   
   146  143  146 1   
   147  143  148 1   
   148  144  145 2   
   149  144  152 1   
   150  146  149 1   
   151  146  150 1   
   152  146  151 1   
   153  152  153 1   
   154  152  161 1   
   155  153  154 1   
   156  153  156 1   
   157  153  162 1   
   158  154  155 2   
   159  154  167 1   
   160  156  157 1   
   161  156  163 1   
   162  156  164 1   
   163  157  158 1   
   164  157  165 1   
   165  157  166 1   
   166  158  159 1   
   167  158  160 1   
   168  167  168 1   
   169  167  172 1   
   170  168  169 1   
   171  168  170 1   
   172  168  171 1   
   173  174  175 1   
   174  174  176 1   
   175  177  178 1   
   176  177  179 1   
@<TRIPOS>SUBSTRUCTURE
     1 MOL         1 TEMP              0 ****  ****    0 ROOT
