@<TRIPOS>MOLECULE
MOL
  179   176     1     0     0
SMALL
resp


@<TRIPOS>ATOM
      1 C1          1.6500    3.7480    4.5200 c3        1 MOL     -0.420607
      2 C2          0.9650    3.2310    3.2580 c         1 MOL      0.703076
      3 O1          1.5760    3.2590    2.1960 o         1 MOL     -0.567543
      4 H1          2.1210    2.9160    5.0430 hc        1 MOL      0.106131
      5 H2          2.4100    4.4810    4.2470 hc        1 MOL      0.106131
      6 H3          0.9110    4.2140    5.1710 hc        1 MOL      0.106131
      7 N1         -0.3300    2.8830    3.3220 n         1 MOL     -0.636575
      8 C3         -1.1710    2.4440    2.1980 c3        1 MOL      0.099485
      9 C4         -2.0860    3.5890    1.5930 c         1 MOL      0.527326
     10 O2         -3.1940    3.7940    2.0890 o         1 MOL     -0.501424
     11 C5         -2.0150    1.3110    2.8490 c3        1 MOL      0.010036
     12 C6         -3.0630    0.7130    1.8420 c         1 MOL      0.638057
     13 O3         -4.0510    0.1320    2.2930 o         1 MOL     -0.634751
     14 O4         -2.6780    0.5900    0.6430 o         1 MOL     -0.634751
     15 H4         -0.8060    2.9060    4.2120 hn        1 MOL      0.348257
     16 H5         -0.5590    1.9970    1.4140 h1        1 MOL     -0.147055
     17 H6         -2.5330    1.6390    3.7410 hc        1 MOL     -0.003550
     18 H7         -1.3800    0.4750    3.1340 hc        1 MOL     -0.003550
     19 N2         -1.6150    4.3670    0.5940 n         1 MOL     -0.194566
     20 C7         -2.1030    5.7640    0.2990 c3        1 MOL     -0.245019
     21 C8         -3.1700    5.7840   -0.8110 c         1 MOL      0.460869
     22 O5         -3.7660    6.7930   -1.2350 o         1 MOL     -0.565887
     23 C9         -0.8280    6.5230   -0.0510 c3        1 MOL     -0.236282
     24 C10        -1.0430    8.0320   -0.2770 c3        1 MOL      0.371376
     25 C11         0.2630    8.8760   -0.4320 c3        1 MOL     -0.210231
     26 C12         0.0730   10.3980   -0.4270 c3        1 MOL      0.007990
     27 N3          0.1130   10.9570    0.9600 n4        1 MOL     -0.462214
     28 H8         -0.6960    4.1940    0.2190 hn        1 MOL      0.302406
     29 H9         -2.5810    6.1350    1.2000 h1        1 MOL      0.148951
     30 H10        -0.2550    6.1440   -0.8950 hc        1 MOL      0.097376
     31 H11        -0.1740    6.3450    0.8070 hc        1 MOL      0.097376
     32 H12        -1.5050    8.3080    0.6800 hc        1 MOL     -0.055604
     33 H13        -1.7620    8.3390   -1.0350 hc        1 MOL     -0.055604
     34 H14         0.5960    8.5810   -1.4310 hc        1 MOL      0.074249
     35 H15         0.9720    8.4740    0.2860 hc        1 MOL      0.074249
     36 H16        -0.8410   10.7530   -0.9040 hx        1 MOL      0.115963
     37 H17         0.8550   10.8650   -1.0330 hx        1 MOL      0.115963
     38 H18        -0.6440   10.7020    1.5650 hn        1 MOL      0.356293
     39 H19         1.0030   10.7180    1.3780 hn        1 MOL      0.356293
     40 H20         0.0610   11.9570    0.8530 hn        1 MOL      0.356293
     41 N4         -3.3400    4.6020   -1.3110 n         1 MOL     -0.140439
     42 C13        -4.4800    4.1970   -2.0770 c3        1 MOL      0.098354
     43 C14        -5.5460    3.4710   -1.2640 c         1 MOL      0.412321
     44 O6         -6.6800    3.4720   -1.7120 o         1 MOL     -0.530458
     45 C15        -3.9410    3.2760   -3.2280 c3        1 MOL     -0.237956
     46 C16        -3.0360    2.1030   -2.6290 c         1 MOL      0.751790
     47 O7         -1.9090    2.3940   -2.1840 o         1 MOL     -0.726790
     48 O8         -3.4640    0.9240   -2.5740 o         1 MOL     -0.726790
     49 H21        -2.8090    3.8370   -0.9260 hn        1 MOL      0.056857
     50 H22        -4.9570    5.0950   -2.4780 h1        1 MOL      0.074490
     51 H23        -3.2950    3.8630   -3.8770 hc        1 MOL      0.061103
     52 H24        -4.7520    2.8950   -3.8390 hc        1 MOL      0.061103
     53 N5         -5.2400    2.7900   -0.1540 n         1 MOL     -0.039591
     54 C17        -6.2460    2.2130    0.7260 c3        1 MOL     -0.139770
     55 C18        -6.7370    0.8200    0.3020 c         1 MOL      0.486789
     56 O9         -7.8650    0.4270    0.5510 o         1 MOL     -0.562762
     57 H25        -4.3050    2.8080    0.2410 hn        1 MOL      0.008958
     58 H26        -7.0870    2.9190    0.7590 h1        1 MOL      0.092509
     59 H27        -5.8870    2.1370    1.7470 h1        1 MOL      0.092509
     60 N6         -5.8990    0.1180   -0.4710 n         1 MOL     -0.087615
     61 C19        -6.2650   -1.1970   -0.9480 c3        1 MOL     -0.101549
     62 C20        -6.0010   -2.3680   -0.0230 c         1 MOL      0.284382
     63 O10        -6.2180   -3.5240   -0.3630 o         1 MOL     -0.415681
     64 C21        -5.6280   -1.5030   -2.3270 c3        1 MOL     -0.267669
     65 C22        -4.2320   -2.1050   -2.3580 c         1 MOL      0.580019
     66 N7         -4.0450   -3.1430   -3.1240 n         1 MOL     -0.689666
     67 O11        -3.3360   -1.7100   -1.6530 o         1 MOL     -0.571033
     68 H28        -4.9600    0.4850   -0.5790 hn        1 MOL      0.087748
     69 H29        -7.3280   -1.2370   -1.1800 h1        1 MOL      0.160577
     70 H30        -5.5210   -0.5380   -2.8260 hc        1 MOL      0.100870
     71 H31        -6.2150   -2.2220   -2.9090 hc        1 MOL      0.100870
     72 H32        -4.7800   -3.4970   -3.7140 hn        1 MOL      0.349356
     73 H33        -3.1270   -3.5540   -3.2180 hn        1 MOL      0.349356
     74 N8         -5.6130   -2.0300    1.2150 n         1 MOL     -0.113106
     75 C23        -5.4030   -3.0370    2.2570 c3        1 MOL     -0.277536
     76 C24        -4.0510   -3.7460    2.2080 c         1 MOL      0.668283
     77 O12        -3.8140   -4.5980    3.0820 o         1 MOL     -0.636442
     78 H34        -5.2300   -1.1110    1.3880 hn        1 MOL      0.225159
     79 H35        -6.1600   -3.8060    2.0630 h1        1 MOL      0.125178
     80 H36        -5.4300   -2.7290    3.2980 h1        1 MOL      0.125178
     81 N9         -3.1180   -3.4150    1.3920 n         1 MOL     -0.348486
     82 C25        -1.7590   -4.0130    1.1970 c3        1 MOL      0.430436
     83 C26        -0.6910   -2.8800    1.0290 c         1 MOL      0.149644
     84 O13        -1.0240   -1.7890    0.5690 o         1 MOL     -0.429799
     85 C27        -1.6490   -4.8680   -0.0310 c3        1 MOL     -0.152151
     86 C28        -2.5790   -6.0870   -0.1270 ca        1 MOL      0.126025
     87 C29        -3.8400   -5.8770   -0.5320 ca        1 MOL     -0.314465
     88 C30        -2.1510   -7.3130    0.4510 ca        1 MOL     -0.314465
     89 C31        -4.7820   -6.9340   -0.4580 ca        1 MOL     -0.052118
     90 C32        -3.0770   -8.3550    0.5300 ca        1 MOL     -0.052118
     91 C33        -4.3960   -8.2360   -0.0020 ca        1 MOL      0.150671
     92 O14        -5.3440   -9.2480    0.0110 oh        1 MOL     -0.465874
     93 H37        -3.3590   -2.6740    0.7380 hn        1 MOL      0.186646
     94 H38        -1.5090   -4.4930    2.1410 h1        1 MOL     -0.018393
     95 H39        -0.6440   -5.2920   -0.0560 hc        1 MOL      0.050181
     96 H40        -1.8350   -4.2000   -0.8840 hc        1 MOL      0.050181
     97 H41        -4.1440   -4.9040   -0.8990 ha        1 MOL      0.155264
     98 H42        -1.2020   -7.4210    0.9460 ha        1 MOL      0.155264
     99 H43        -5.8030   -6.7080   -0.7370 ha        1 MOL      0.089742
    100 H44        -2.7180   -9.3140    0.8780 ha        1 MOL      0.089742
    101 H45        -5.0750  -10.0450    0.4760 ho        1 MOL      0.366708
    102 N10         0.5490   -3.1270    1.4520 n         1 MOL     -0.206656
    103 C34         1.7200   -2.3410    1.1710 c3        1 MOL     -0.117754
    104 C35         2.8580   -3.1320    0.5790 c         1 MOL      0.527314
    105 O15         3.1240   -4.1520    1.1580 o         1 MOL     -0.536105
    106 C36         2.2740   -1.5540    2.3640 c3        1 MOL      0.405794
    107 C37         2.7010   -2.3280    3.6030 c3        1 MOL     -0.423229
    108 C38         1.3050   -0.4380    2.7680 c3        1 MOL     -0.895470
    109 C39         3.3290   -1.5230    4.7630 c3        1 MOL      0.043471
    110 H46         0.7040   -3.9140    2.0730 hn        1 MOL      0.242031
    111 H47         1.4020   -1.5760    0.4650 h1        1 MOL     -0.083973
    112 H48         3.1820   -1.1060    1.9500 hc        1 MOL     -0.058705
    113 H49         3.4740   -3.0290    3.2930 hc        1 MOL      0.137645
    114 H50         1.8160   -2.8770    3.9070 hc        1 MOL      0.137645
    115 H51         1.7720    0.3180    3.3980 hc        1 MOL      0.273620
    116 H52         1.0040    0.2300    1.9600 hc        1 MOL      0.273620
    117 H53         0.4920   -0.9190    3.3130 hc        1 MOL      0.273620
    118 H54         3.7370   -2.1070    5.5850 hc        1 MOL      0.002548
    119 H55         4.1020   -0.8860    4.3390 hc        1 MOL      0.002548
    120 H56         2.6130   -0.8470    5.2380 hc        1 MOL      0.002548
    121 N11         3.5190   -2.6740   -0.5310 n         1 MOL     -0.319034
    122 C40         4.6770   -3.4260   -1.0410 c3        1 MOL      0.026925
    123 C41         5.9970   -2.9500   -0.2480 c         1 MOL      0.392987
    124 O16         5.9060   -2.0230    0.5800 o         1 MOL     -0.372424
    125 C42         4.6820   -2.9450   -2.5160 c3        1 MOL     -0.261524
    126 O17         4.7080   -1.5830   -2.6500 oh        1 MOL     -0.396522
    127 H57         3.3240   -1.7100   -0.7840 hn        1 MOL      0.151985
    128 H58         4.5620   -4.5140   -1.0290 h1        1 MOL      0.103338
    129 H59         3.7800   -3.3810   -2.9430 h1        1 MOL      0.123349
    130 H60         5.5130   -3.3860   -3.0730 h1        1 MOL      0.123349
    131 H61         4.0810   -1.2750   -3.3160 ho        1 MOL      0.399140
    132 N12         7.1410   -3.4640   -0.6770 n         1 MOL     -0.457218
    133 C43         8.4850   -2.9190   -0.2500 c3        1 MOL      0.168284
    134 C44         8.6300   -1.4300   -0.7010 c         1 MOL      0.426155
    135 O18         9.1890   -0.6140    0.0020 o         1 MOL     -0.488686
    136 C45         9.6640   -3.7850   -0.7180 c3        1 MOL     -0.178239
    137 H62         7.0130   -4.1960   -1.3450 hn        1 MOL      0.280926
    138 H63         8.4930   -2.9180    0.8410 h1        1 MOL      0.072909
    139 H64         9.8880   -3.6740   -1.7750 hc        1 MOL      0.061593
    140 H65        10.5250   -3.4300   -0.1510 hc        1 MOL      0.061593
    141 H66         9.5340   -4.8420   -0.4620 hc        1 MOL      0.061593
    142 N13         8.0580   -1.0830   -1.8610 n         1 MOL     -0.370513
    143 C46         7.9930    0.2970   -2.4020 c3        1 MOL      0.143226
    144 C47         7.2430    1.2810   -1.4990 c         1 MOL      0.277531
    145 O19         7.7340    2.3940   -1.1880 o         1 MOL     -0.462406
    146 C48         7.3860    0.3320   -3.8010 c3        1 MOL     -0.312286
    147 H67         7.7360   -1.8140   -2.4800 hn        1 MOL      0.250580
    148 H68         8.9710    0.7580   -2.4160 h1        1 MOL      0.067723
    149 H69         8.1260   -0.0440   -4.5160 hc        1 MOL      0.078432
    150 H70         6.3950   -0.1220   -3.8320 hc        1 MOL      0.078432
    151 H71         7.1790    1.3720   -4.0070 hc        1 MOL      0.078432
    152 N14         6.0840    0.7690   -1.0210 n         1 MOL     -0.022259
    153 C49         5.2690    1.6850   -0.2070 c3        1 MOL     -0.244675
    154 C50         5.9590    2.0410    1.1370 c         1 MOL      0.389823
    155 O20         5.9510    3.1770    1.6110 o         1 MOL     -0.525116
    156 C51         3.8590    1.1200   -0.0310 c3        1 MOL      0.316400
    157 C52         3.0920    1.3620   -1.3120 c3        1 MOL      0.072770
    158 C53         1.6270    0.7860   -1.3220 c         1 MOL      0.625717
    159 O21         0.7100    1.3190   -0.6480 o         1 MOL     -0.673104
    160 O22         1.4280   -0.2780   -1.9730 o         1 MOL     -0.673104
    161 H72         5.7360   -0.0100   -1.5630 hn        1 MOL      0.220321
    162 H73         5.2320    2.6250   -0.7580 h1        1 MOL      0.106499
    163 H74         3.3860    1.5950    0.8300 hc        1 MOL     -0.013880
    164 H75         4.0140    0.0430    0.0220 hc        1 MOL     -0.013880
    165 H76         3.6040    0.8700   -2.1440 hc        1 MOL     -0.083390
    166 H77         3.0020    2.4370   -1.4670 hc        1 MOL     -0.083390
    167 N15         6.6700    1.0870    1.7010 n         1 MOL      0.012270
    168 C54         7.3900    1.2030    2.9950 c3        1 MOL     -0.409533
    169 H78         7.8040    0.2320    3.2690 h1        1 MOL      0.142656
    170 H79         8.2000    1.9270    2.8970 h1        1 MOL      0.142656
    171 H80         6.6980    1.5330    3.7690 h1        1 MOL      0.142656
    172 H81         6.7220    0.1840    1.2590 hn        1 MOL      0.093787
    173 Ca1        -1.3210   -0.0620   -1.3580 Ca        1 MOL      1.757573
    174 O23        -0.6110   -0.2990   -4.0450 oh        1 MOL     -0.831567
    175 H82        -0.6970    0.4260   -4.6560 ho        1 MOL      0.406397
    176 H83        -0.3810   -1.0500   -4.5940 ho        1 MOL      0.406397
    177 O24         0.1240   -2.6960   -1.9700 oh        1 MOL     -0.831567
    178 H84         0.9280   -2.1730   -2.0260 ho        1 MOL      0.406397
    179 H85         0.4330   -3.5750   -1.7550 ho        1 MOL      0.406397
@<TRIPOS>BOND
     1    1    2 1   
     2    1    4 1   
     3    1    5 1   
     4    1    6 1   
     5    2    3 2   
     6    2    7 1   
     7    7    8 1   
     8    7   15 1   
     9    8    9 1   
    10    8   11 1   
    11    8   16 1   
    12    9   10 2   
    13    9   19 1   
    14   11   12 1   
    15   11   17 1   
    16   11   18 1   
    17   12   13 1   
    18   12   14 1   
    19   19   20 1   
    20   19   28 1   
    21   20   21 1   
    22   20   23 1   
    23   20   29 1   
    24   21   22 2   
    25   21   41 1   
    26   23   24 1   
    27   23   30 1   
    28   23   31 1   
    29   24   25 1   
    30   24   32 1   
    31   24   33 1   
    32   25   26 1   
    33   25   34 1   
    34   25   35 1   
    35   26   27 1   
    36   26   36 1   
    37   26   37 1   
    38   27   38 1   
    39   27   39 1   
    40   27   40 1   
    41   41   42 1   
    42   41   49 1   
    43   42   43 1   
    44   42   45 1   
    45   42   50 1   
    46   43   44 2   
    47   43   53 1   
    48   45   46 1   
    49   45   51 1   
    50   45   52 1   
    51   46   47 1   
    52   46   48 1   
    53   53   54 1   
    54   53   57 1   
    55   54   55 1   
    56   54   58 1   
    57   54   59 1   
    58   55   56 2   
    59   55   60 1   
    60   60   61 1   
    61   60   68 1   
    62   61   62 1   
    63   61   64 1   
    64   61   69 1   
    65   62   63 2   
    66   62   74 1   
    67   64   65 1   
    68   64   70 1   
    69   64   71 1   
    70   65   66 1   
    71   65   67 2   
    72   66   72 1   
    73   66   73 1   
    74   74   75 1   
    75   74   78 1   
    76   75   76 1   
    77   75   79 1   
    78   75   80 1   
    79   76   77 2   
    80   76   81 1   
    81   81   82 1   
    82   81   93 1   
    83   82   83 1   
    84   82   85 1   
    85   82   94 1   
    86   83   84 2   
    87   83  102 1   
    88   85   86 1   
    89   85   95 1   
    90   85   96 1   
    91   86   87 ar  
    92   86   88 ar  
    93   87   89 ar  
    94   87   97 1   
    95   88   90 ar  
    96   88   98 1   
    97   89   91 ar  
    98   89   99 1   
    99   90   91 ar  
   100   90  100 1   
   101   91   92 1   
   102   92  101 1   
   103  102  103 1   
   104  102  110 1   
   105  103  104 1   
   106  103  106 1   
   107  103  111 1   
   108  104  105 2   
   109  104  121 1   
   110  106  107 1   
   111  106  108 1   
   112  106  112 1   
   113  107  109 1   
   114  107  113 1   
   115  107  114 1   
   116  108  115 1   
   117  108  116 1   
   118  108  117 1   
   119  109  118 1   
   120  109  119 1   
   121  109  120 1   
   122  121  122 1   
   123  121  127 1   
   124  122  123 1   
   125  122  125 1   
   126  122  128 1   
   127  123  124 2   
   128  123  132 1   
   129  125  126 1   
   130  125  129 1   
   131  125  130 1   
   132  126  131 1   
   133  132  133 1   
   134  132  137 1   
   135  133  134 1   
   136  133  136 1   
   137  133  138 1   
   138  134  135 2   
   139  134  142 1   
   140  136  139 1   
   141  136  140 1   
   142  136  141 1   
   143  142  143 1   
   144  142  147 1   
   145  143  144 1   
   146  143  146 1   
   147  143  148 1   
   148  144  145 2   
   149  144  152 1   
   150  146  149 1   
   151  146  150 1   
   152  146  151 1   
   153  152  153 1   
   154  152  161 1   
   155  153  154 1   
   156  153  156 1   
   157  153  162 1   
   158  154  155 2   
   159  154  167 1   
   160  156  157 1   
   161  156  163 1   
   162  156  164 1   
   163  157  158 1   
   164  157  165 1   
   165  157  166 1   
   166  158  159 1   
   167  158  160 1   
   168  167  168 1   
   169  167  172 1   
   170  168  169 1   
   171  168  170 1   
   172  168  171 1   
   173  174  175 1   
   174  174  176 1   
   175  177  178 1   
   176  177  179 1   
@<TRIPOS>SUBSTRUCTURE
     1 MOL         1 TEMP              0 ****  ****    0 ROOT
