@<TRIPOS>MOLECULE
MOL
  189   185     1     0     0
SMALL
resp


@<TRIPOS>ATOM
      1 C1          0.0730    2.8540   -5.5140 c3        1 MOL     -0.337251
      2 C2          0.5210    2.8140   -4.0300 c         1 MOL      0.758970
      3 O1         -0.2480    3.2490   -3.1140 o         1 MOL     -0.696295
      4 H1         -0.1720    1.8460   -5.8460 hc        1 MOL      0.085367
      5 H2         -0.8060    3.4910   -5.6110 hc        1 MOL      0.085367
      6 H3          0.8810    3.2530   -6.1270 hc        1 MOL      0.085367
      7 N1          1.7250    2.2550   -3.8300 n         1 MOL     -0.653428
      8 C3          2.2500    1.9710   -2.5030 c3        1 MOL      0.237076
      9 C4          2.7810    3.2740   -1.8760 c         1 MOL      0.453324
     10 O2          3.6140    3.9880   -2.4940 o         1 MOL     -0.557520
     11 C5          3.1900    0.7860   -2.6520 c3        1 MOL     -0.227015
     12 C6          3.9670    0.5400   -1.3290 c         1 MOL      0.695900
     13 O3          3.5700    1.0710   -0.2260 o         1 MOL     -0.637054
     14 O4          5.0080   -0.1210   -1.3930 o         1 MOL     -0.637054
     15 H4          2.3020    1.9350   -4.6000 hn        1 MOL      0.346388
     16 H5          1.3790    1.6400   -1.9290 h1        1 MOL      0.057471
     17 H6          3.9530    0.8660   -3.4140 hc        1 MOL      0.055173
     18 H7          2.5710   -0.0920   -2.8660 hc        1 MOL      0.055173
     19 N2          2.2430    3.6220   -0.6850 n         1 MOL     -0.363964
     20 C7          2.4900    4.8850    0.0500 c3        1 MOL      0.022995
     21 C8          3.5200    4.7800    1.1770 c         1 MOL      0.669384
     22 O5          3.9480    5.7360    1.6670 o         1 MOL     -0.595222
     23 C9          1.1940    5.5790    0.5150 c3        1 MOL      0.063160
     24 C10         0.0790    6.0370   -0.4980 c3        1 MOL     -0.105832
     25 C11         0.3600    7.4240   -1.1760 c3        1 MOL     -0.241945
     26 C12        -0.6960    7.8270   -2.3030 c3        1 MOL      0.027300
     27 N3         -0.7370    6.9530   -3.4810 n4        1 MOL     -0.280777
     28 H8          1.6630    2.9690   -0.1740 hn        1 MOL      0.238825
     29 H9          2.9510    5.5530   -0.6740 h1        1 MOL      0.036803
     30 H10         1.4430    6.4750    1.0730 hc        1 MOL     -0.005354
     31 H11         0.7360    4.9130    1.2480 hc        1 MOL     -0.005354
     32 H12        -0.9230    5.9730   -0.0720 hc        1 MOL      0.077114
     33 H13        -0.0900    5.2470   -1.2350 hc        1 MOL      0.077114
     34 H14         1.4140    7.5830   -1.4080 hc        1 MOL      0.118258
     35 H15         0.2730    8.2170   -0.4360 hc        1 MOL      0.118258
     36 H16        -0.4410    8.8390   -2.6150 hx        1 MOL      0.076394
     37 H17        -1.7120    7.9450   -1.9300 hx        1 MOL      0.076394
     38 H18         0.1960    6.7270   -3.7820 hn        1 MOL      0.313741
     39 H19        -1.2610    6.1190   -3.2590 hn        1 MOL      0.313741
     40 H20        -1.2160    7.3600   -4.2680 hn        1 MOL      0.313741
     41 N4          4.0500    3.5930    1.4640 n         1 MOL     -0.447717
     42 C13         5.0830    3.5230    2.5360 c3        1 MOL      0.008456
     43 C14         6.2870    2.6310    2.1540 c         1 MOL      0.374998
     44 O6          7.2840    2.5130    2.8640 o         1 MOL     -0.514873
     45 C15         4.2910    3.0150    3.7350 c3        1 MOL     -0.242358
     46 C16         3.4570    1.8300    3.5880 c         1 MOL      0.787257
     47 O7          3.6580    0.9340    2.7150 o         1 MOL     -0.660137
     48 O8          2.5600    1.6510    4.4110 o         1 MOL     -0.660137
     49 H21         3.8270    2.7200    1.0100 hn        1 MOL      0.222737
     50 H22         5.4780    4.5260    2.7410 h1        1 MOL      0.130707
     51 H23         3.6940    3.8080    4.1720 hc        1 MOL      0.068807
     52 H24         5.0310    2.8030    4.5100 hc        1 MOL      0.068807
     53 N5          6.2310    1.9710    1.0200 n         1 MOL     -0.173602
     54 C17         7.3320    1.2810    0.4390 c3        1 MOL     -0.182423
     55 C18         7.6010   -0.0760    1.1660 c         1 MOL      0.506673
     56 O9          8.7370   -0.5290    1.2740 o         1 MOL     -0.580943
     57 H25         5.4130    1.9130    0.4300 hn        1 MOL      0.196262
     58 H26         8.1950    1.9470    0.4270 h1        1 MOL      0.100435
     59 H27         7.1420    1.1100   -0.6210 h1        1 MOL      0.100435
     60 N6          6.5500   -0.7590    1.6320 n         1 MOL     -0.213581
     61 C19         6.6260   -2.1600    2.0630 c3        1 MOL     -0.006743
     62 C20         6.5920   -3.1430    0.9270 c         1 MOL      0.358742
     63 O10         6.7400   -4.3550    1.2740 o         1 MOL     -0.496834
     64 C21         5.5690   -2.4700    3.2070 c3        1 MOL     -0.274668
     65 C22         4.1070   -2.2190    2.6350 c         1 MOL      0.719577
     66 O11         3.1530   -1.9500    3.3870 o         1 MOL     -0.694177
     67 O12         3.9120   -2.1780    1.3830 o         1 MOL     -0.694177
     68 H28         5.6110   -0.4000    1.5830 hn        1 MOL      0.191329
     69 H29         7.5290   -2.3550    2.6470 h1        1 MOL      0.125091
     70 H30         5.7480   -1.7970    4.0530 hc        1 MOL      0.094077
     71 H31         5.7390   -3.5170    3.4560 hc        1 MOL      0.094077
     72 N7          6.4620   -2.7140   -0.3930 n         1 MOL     -0.187569
     73 C23         6.5600   -3.7090   -1.4800 c3        1 MOL     -0.244477
     74 C24         5.2570   -4.4910   -1.6130 c         1 MOL      0.559742
     75 O13         5.2230   -5.5710   -2.2170 o         1 MOL     -0.572770
     76 H32         6.4320   -1.7160   -0.5730 hn        1 MOL      0.239271
     77 H33         7.3260   -4.4670   -1.3030 h1        1 MOL      0.122449
     78 H34         6.7100   -3.2580   -2.4640 h1        1 MOL      0.122449
     79 N8          4.1550   -3.9020   -1.1390 n         1 MOL     -0.270000
     80 C25         2.8000   -4.4130   -1.2460 c3        1 MOL     -0.198807
     81 C26         1.7750   -3.2590   -1.3900 c         1 MOL      0.647194
     82 O14         2.0960   -2.2060   -0.8530 o         1 MOL     -0.562697
     83 C27         2.4010   -5.2820   -0.0790 c3        1 MOL      0.525217
     84 C28         3.0190   -6.6580   -0.1290 c3        1 MOL     -0.299029
     85 O15         2.7070   -4.6830    1.2090 oh        1 MOL     -0.635774
     86 H35         4.2080   -3.0330   -0.6360 hn        1 MOL      0.166359
     87 H36         2.6940   -4.9440   -2.1940 h1        1 MOL      0.094765
     88 H37         1.3380   -5.5190   -0.0890 h1        1 MOL     -0.047574
     89 H38         3.1900   -3.8740    1.0040 ho        1 MOL      0.411372
     90 H39         2.8430   -6.9710   -1.1600 hc        1 MOL      0.067563
     91 H40         4.0650   -6.6770    0.1660 hc        1 MOL      0.067563
     92 H41         2.5460   -7.3920    0.5210 hc        1 MOL      0.067563
     93 N9          0.5760   -3.6140   -1.9000 n         1 MOL     -0.606650
     94 C29        -0.6420   -2.7930   -2.0380 c3        1 MOL      0.143269
     95 C30        -1.8320   -3.4450   -1.3590 c         1 MOL      0.401157
     96 O16        -2.0910   -4.6630   -1.6460 o         1 MOL     -0.503251
     97 C31        -0.9190   -2.5310   -3.5420 c3        1 MOL      0.205033
     98 C32         0.1960   -1.9940   -4.4050 c3        1 MOL      0.074482
     99 C33        -2.0610   -1.5760   -3.6090 c3        1 MOL     -0.161365
    100 C34         0.0780   -2.0200   -5.9640 c3        1 MOL     -0.344548
    101 H42         0.5010   -4.5290   -2.3210 hn        1 MOL      0.287591
    102 H43        -0.5040   -1.8500   -1.5010 h1        1 MOL      0.025571
    103 H44        -1.3120   -3.4930   -3.8660 hc        1 MOL     -0.024938
    104 H45         1.1090   -2.5590   -4.1810 hc        1 MOL      0.006103
    105 H46         0.4040   -0.9770   -4.0770 hc        1 MOL      0.006103
    106 H47        -1.8120   -0.5450   -3.3490 hc        1 MOL      0.007054
    107 H48        -2.2920   -1.4790   -4.6780 hc        1 MOL      0.007054
    108 H49        -2.9970   -1.9340   -3.1940 hc        1 MOL      0.007054
    109 H50         0.1780   -3.0830   -6.1750 hc        1 MOL      0.089412
    110 H51        -0.8480   -1.5530   -6.2620 hc        1 MOL      0.089412
    111 H52         0.8640   -1.3940   -6.3840 hc        1 MOL      0.089412
    112 N10        -2.6670   -2.6510   -0.6010 n         1 MOL     -0.274327
    113 C35        -3.8770   -3.1050    0.1620 c3        1 MOL      0.004258
    114 C36        -5.1610   -2.5930   -0.4660 c         1 MOL      0.467384
    115 O17        -5.1450   -1.7770   -1.3390 o         1 MOL     -0.401123
    116 C37        -3.8630   -2.6990    1.6390 c3        1 MOL      0.327475
    117 C38        -2.5720   -2.8200    2.4340 c3        1 MOL     -0.761733
    118 O18        -4.2310   -1.3790    1.7140 oh        1 MOL     -0.512193
    119 H53        -2.3380   -1.7310   -0.3460 hn        1 MOL      0.319084
    120 H54        -3.9780   -4.1860    0.1610 h1        1 MOL      0.052272
    121 H55        -4.7050   -3.2030    2.1200 h1        1 MOL      0.004068
    122 H56        -4.2770   -1.2620    2.6720 ho        1 MOL      0.388689
    123 H57        -1.8790   -2.0200    2.1840 hc        1 MOL      0.207820
    124 H58        -2.9000   -2.9380    3.4630 hc        1 MOL      0.207820
    125 H59        -2.0040   -3.7380    2.2440 hc        1 MOL      0.207820
    126 N11        -6.3410   -3.0880   -0.0610 n         1 MOL     -0.374127
    127 C39        -7.6540   -2.4330   -0.4260 c3        1 MOL     -0.240747
    128 C40        -7.6470   -0.9090   -0.1760 c         1 MOL      0.406935
    129 O19        -8.3770   -0.2570   -0.9280 o         1 MOL     -0.482086
    130 C41        -8.8850   -3.0650    0.3200 c3        1 MOL      0.280454
    131 C42        -9.2350   -4.4470   -0.2490 c3        1 MOL     -0.262738
    132 O20        -8.5930   -3.3390    1.6860 oh        1 MOL     -0.654410
    133 H60        -6.3280   -3.9220    0.5110 hn        1 MOL      0.303151
    134 H61        -7.8560   -2.5440   -1.4910 h1        1 MOL      0.179652
    135 H62        -9.7680   -2.4180    0.3750 h1        1 MOL      0.052324
    136 H63        -9.4270   -3.2670    2.1610 ho        1 MOL      0.417354
    137 H64       -10.0020   -4.2960   -1.0000 hc        1 MOL      0.083001
    138 H65        -8.4560   -5.0020   -0.7570 hc        1 MOL      0.083001
    139 H66        -9.6680   -5.0680    0.5400 hc        1 MOL      0.083001
    140 N12        -6.8100   -0.3770    0.7360 n         1 MOL     -0.191023
    141 C43        -6.8630    1.0430    1.0310 c3        1 MOL      0.078509
    142 C44        -6.0440    1.7590    0.0300 c         1 MOL      0.470154
    143 O21        -6.5390    2.6960   -0.6150 o         1 MOL     -0.493870
    144 C45        -6.5580    1.3700    2.4990 c3        1 MOL     -0.046698
    145 C46        -7.8520    1.4230    3.3710 c3        1 MOL      0.030074
    146 C47        -7.4960    1.5690    4.8720 c3        1 MOL     -0.048335
    147 C48        -8.7940    1.8560    5.6100 c3        1 MOL     -0.050338
    148 N13        -8.5450    2.0290    7.0840 n4        1 MOL     -0.245666
    149 H67        -6.0800   -0.9200    1.1650 hn        1 MOL      0.152297
    150 H68        -7.8880    1.2880    0.7690 h1        1 MOL      0.018790
    151 H69        -6.0350    2.3090    2.6190 hc        1 MOL      0.010662
    152 H70        -5.9750    0.5120    2.8220 hc        1 MOL      0.010662
    153 H71        -8.4200    0.5110    3.2100 hc        1 MOL      0.026358
    154 H72        -8.3570    2.3330    3.0360 hc        1 MOL      0.026358
    155 H73        -6.7910    2.3910    5.0190 hc        1 MOL      0.042092
    156 H74        -7.1320    0.5660    5.0540 hc        1 MOL      0.042092
    157 H75        -9.4670    1.0420    5.3360 hx        1 MOL      0.102839
    158 H76        -9.0880    2.8300    5.2080 hx        1 MOL      0.102839
    159 H77        -8.3380    1.1330    7.5040 hn        1 MOL      0.267267
    160 H78        -7.7650    2.6690    7.1630 hn        1 MOL      0.267267
    161 H79        -9.3370    2.4020    7.5970 hn        1 MOL      0.267267
    162 N14        -4.7630    1.3700   -0.1600 n         1 MOL     -0.348385
    163 C49        -3.8690    2.0350   -1.1830 c3        1 MOL     -0.183838
    164 C50        -4.5710    1.9660   -2.5770 c         1 MOL      0.407986
    165 O22        -4.5770    2.9850   -3.3350 o         1 MOL     -0.540483
    166 C51        -2.4910    1.3630   -1.1800 c3        1 MOL      0.143197
    167 C52        -1.5350    1.8730   -0.0320 c3        1 MOL     -0.130741
    168 C53        -0.1930    1.1640    0.1290 c         1 MOL      0.738629
    169 O23         0.7940    1.6510    0.7430 o         1 MOL     -0.770940
    170 O24        -0.0710   -0.0100   -0.2350 o         1 MOL     -0.770940
    171 H80        -4.4340    0.5170    0.2730 hn        1 MOL      0.204481
    172 H81        -3.7320    3.0710   -0.8880 h1        1 MOL      0.128232
    173 H82        -2.0390    1.6020   -2.1460 hc        1 MOL      0.043439
    174 H83        -2.6310    0.2820   -1.1610 hc        1 MOL      0.043439
    175 H84        -2.1330    1.7370    0.8710 hc        1 MOL      0.006998
    176 H85        -1.3520    2.9350   -0.1720 hc        1 MOL      0.006998
    177 N15        -5.0490    0.7670   -2.9700 n         1 MOL     -0.067855
    178 C54        -5.6500    0.5430   -4.2530 c3        1 MOL     -0.180378
    179 H86        -5.2150   -0.3470   -4.7070 h1        1 MOL      0.075475
    180 H87        -6.7240    0.4010   -4.1320 h1        1 MOL      0.075475
    181 H88        -5.4670    1.4040   -4.8960 h1        1 MOL      0.075475
    182 H89        -5.1330    0.0530   -2.2630 hn        1 MOL      0.187290
    183 Ca1         2.0960   -0.4420    1.2400 Ca        1 MOL      1.710166
    184 O25         0.5370   -2.6680    1.8300 oh        1 MOL     -0.779820
    185 O26         0.5670    0.0270    3.4500 oh        1 MOL     -0.779820
    186 H90        -0.1560   -2.5440    2.4820 ho        1 MOL      0.365662
    187 H91        -0.3280    0.0710    3.8080 ho        1 MOL      0.365662
    188 H92         0.9490   -3.4930    2.0750 ho        1 MOL      0.365662
    189 H93         1.1140    0.3730    4.1620 ho        1 MOL      0.365662
@<TRIPOS>BOND
     1    1    2 1   
     2    1    4 1   
     3    1    5 1   
     4    1    6 1   
     5    2    3 2   
     6    2    7 1   
     7    7    8 1   
     8    7   15 1   
     9    8    9 1   
    10    8   11 1   
    11    8   16 1   
    12    9   10 2   
    13    9   19 1   
    14   11   12 1   
    15   11   17 1   
    16   11   18 1   
    17   12   13 1   
    18   12   14 1   
    19   19   20 1   
    20   19   28 1   
    21   20   21 1   
    22   20   23 1   
    23   20   29 1   
    24   21   22 2   
    25   21   41 1   
    26   23   24 1   
    27   23   30 1   
    28   23   31 1   
    29   24   25 1   
    30   24   32 1   
    31   24   33 1   
    32   25   26 1   
    33   25   34 1   
    34   25   35 1   
    35   26   27 1   
    36   26   36 1   
    37   26   37 1   
    38   27   38 1   
    39   27   39 1   
    40   27   40 1   
    41   41   42 1   
    42   41   49 1   
    43   42   43 1   
    44   42   45 1   
    45   42   50 1   
    46   43   44 2   
    47   43   53 1   
    48   45   46 1   
    49   45   51 1   
    50   45   52 1   
    51   46   47 1   
    52   46   48 1   
    53   53   54 1   
    54   53   57 1   
    55   54   55 1   
    56   54   58 1   
    57   54   59 1   
    58   55   56 2   
    59   55   60 1   
    60   60   61 1   
    61   60   68 1   
    62   61   62 1   
    63   61   64 1   
    64   61   69 1   
    65   62   63 2   
    66   62   72 1   
    67   64   65 1   
    68   64   70 1   
    69   64   71 1   
    70   65   66 1   
    71   65   67 1   
    72   72   73 1   
    73   72   76 1   
    74   73   74 1   
    75   73   77 1   
    76   73   78 1   
    77   74   75 2   
    78   74   79 1   
    79   79   80 1   
    80   79   86 1   
    81   80   81 1   
    82   80   83 1   
    83   80   87 1   
    84   81   82 2   
    85   81   93 1   
    86   83   84 1   
    87   83   85 1   
    88   83   88 1   
    89   84   90 1   
    90   84   91 1   
    91   84   92 1   
    92   85   89 1   
    93   93   94 1   
    94   93  101 1   
    95   94   95 1   
    96   94   97 1   
    97   94  102 1   
    98   95   96 2   
    99   95  112 1   
   100   97   98 1   
   101   97   99 1   
   102   97  103 1   
   103   98  100 1   
   104   98  104 1   
   105   98  105 1   
   106   99  106 1   
   107   99  107 1   
   108   99  108 1   
   109  100  109 1   
   110  100  110 1   
   111  100  111 1   
   112  112  113 1   
   113  112  119 1   
   114  113  114 1   
   115  113  116 1   
   116  113  120 1   
   117  114  115 2   
   118  114  126 1   
   119  116  117 1   
   120  116  118 1   
   121  116  121 1   
   122  117  123 1   
   123  117  124 1   
   124  117  125 1   
   125  118  122 1   
   126  126  127 1   
   127  126  133 1   
   128  127  128 1   
   129  127  130 1   
   130  127  134 1   
   131  128  129 2   
   132  128  140 1   
   133  130  131 1   
   134  130  132 1   
   135  130  135 1   
   136  131  137 1   
   137  131  138 1   
   138  131  139 1   
   139  132  136 1   
   140  140  141 1   
   141  140  149 1   
   142  141  142 1   
   143  141  144 1   
   144  141  150 1   
   145  142  143 2   
   146  142  162 1   
   147  144  145 1   
   148  144  151 1   
   149  144  152 1   
   150  145  146 1   
   151  145  153 1   
   152  145  154 1   
   153  146  147 1   
   154  146  155 1   
   155  146  156 1   
   156  147  148 1   
   157  147  157 1   
   158  147  158 1   
   159  148  159 1   
   160  148  160 1   
   161  148  161 1   
   162  162  163 1   
   163  162  171 1   
   164  163  164 1   
   165  163  166 1   
   166  163  172 1   
   167  164  165 2   
   168  164  177 1   
   169  166  167 1   
   170  166  173 1   
   171  166  174 1   
   172  167  168 1   
   173  167  175 1   
   174  167  176 1   
   175  168  169 1   
   176  168  170 1   
   177  177  178 1   
   178  177  182 1   
   179  178  179 1   
   180  178  180 1   
   181  178  181 1   
   182  184  186 1   
   183  184  188 1   
   184  185  187 1   
   185  185  189 1   
@<TRIPOS>SUBSTRUCTURE
     1 MOL         1 TEMP              0 ****  ****    0 ROOT
