@<TRIPOS>MOLECULE
MOL
  175   173     1     0     0
SMALL
resp


@<TRIPOS>ATOM
      1 C1          0.8070    3.3930    5.8640 c3        1 MOL     -0.485580
      2 C2          0.1900    3.5650    4.4130 c         1 MOL      0.674641
      3 O1          1.0030    3.4480    3.4910 o         1 MOL     -0.505113
      4 H1          0.0040    3.2420    6.5840 hc        1 MOL      0.122461
      5 H2          1.4730    2.5290    5.8760 hc        1 MOL      0.122461
      6 H3          1.3690    4.2890    6.1280 hc        1 MOL      0.122461
      7 N1         -1.1560    3.5760    4.1990 n         1 MOL     -0.670008
      8 C3         -1.6850    3.4180    2.8690 c3        1 MOL      0.080771
      9 C4         -1.5190    4.6690    2.0080 c         1 MOL      0.534360
     10 O2         -1.4920    5.8310    2.5310 o         1 MOL     -0.564785
     11 C5         -3.1330    2.9440    2.9990 c3        1 MOL     -0.084324
     12 C6         -3.7050    2.3920    1.6580 c         1 MOL      0.545277
     13 O3         -2.9830    2.1720    0.6450 o         1 MOL     -0.626807
     14 O4         -4.9620    2.3660    1.6180 o         1 MOL     -0.626807
     15 H4         -1.7120    3.6990    5.0260 hn        1 MOL      0.349507
     16 H5         -1.1360    2.5690    2.4640 h1        1 MOL      0.131972
     17 H6         -3.7880    3.7460    3.3320 hc        1 MOL      0.033237
     18 H7         -3.2870    2.2820    3.8530 hc        1 MOL      0.033237
     19 N2         -1.4150    4.4800    0.6740 n         1 MOL     -0.533768
     20 C7         -1.5130    5.4950   -0.3490 c3        1 MOL      0.205271
     21 C8         -2.5680    5.2130   -1.4770 c         1 MOL      0.434390
     22 O5         -2.6350    6.0700   -2.3710 o         1 MOL     -0.547663
     23 C9         -0.1200    5.8430   -0.7990 c3        1 MOL      0.032063
     24 H8         -1.3950    3.5220    0.3400 hn        1 MOL      0.425952
     25 H9         -1.8190    6.4630    0.0470 h1        1 MOL      0.012942
     26 H10        -0.0520    6.5520   -1.6250 hc        1 MOL     -0.012412
     27 H11         0.5570    6.2230   -0.0270 hc        1 MOL     -0.012412
     28 H12         0.2990    4.8980   -1.1590 hc        1 MOL     -0.012412
     29 N3         -3.2890    4.0300   -1.5190 n         1 MOL     -0.382318
     30 C10        -4.2570    3.6550   -2.5620 c3        1 MOL      0.133416
     31 C11        -5.6940    3.0980   -2.1700 c         1 MOL      0.355951
     32 O6         -6.5100    3.0440   -3.0160 o         1 MOL     -0.526740
     33 C12        -3.6370    2.7440   -3.6050 c3        1 MOL     -0.430594
     34 C13        -3.0560    1.5010   -2.9710 c         1 MOL      0.778667
     35 O7         -1.8650    1.1360   -3.2280 o         1 MOL     -0.717601
     36 O8         -3.7300    0.9650   -2.0780 o         1 MOL     -0.717601
     37 H13        -3.1500    3.4060   -0.7420 hn        1 MOL      0.224952
     38 H14        -4.3920    4.6010   -3.0970 h1        1 MOL      0.076299
     39 H15        -2.8640    3.3810   -4.0210 hc        1 MOL      0.115896
     40 H16        -4.4210    2.4690   -4.3120 hc        1 MOL      0.115896
     41 N4         -5.9530    2.6280   -0.9640 n         1 MOL     -0.224948
     42 C14        -7.2070    1.9350   -0.5980 c3        1 MOL     -0.089408
     43 C15        -7.3340    0.4960   -1.1900 c         1 MOL      0.475972
     44 O9         -8.3680   -0.1300   -0.9810 o         1 MOL     -0.614886
     45 H17        -5.2070    2.5370   -0.2920 hn        1 MOL      0.144656
     46 H18        -8.0930    2.5410   -0.6890 h1        1 MOL      0.096865
     47 H19        -7.1540    1.7560    0.4800 h1        1 MOL      0.096865
     48 N5         -6.3160   -0.1700   -1.7810 n         1 MOL     -0.320300
     49 C16        -6.4730   -1.5300   -2.4160 c3        1 MOL      0.014687
     50 C17        -6.5430   -2.6920   -1.3110 c         1 MOL      0.385073
     51 O10        -6.5070   -3.8710   -1.6080 o         1 MOL     -0.534416
     52 C18        -5.2060   -1.7080   -3.2700 c3        1 MOL     -0.299411
     53 C19        -3.9010   -1.8970   -2.4890 c         1 MOL      0.481543
     54 N6         -2.9120   -2.2340   -3.2980 n         1 MOL     -0.680660
     55 O11        -3.7120   -1.8700   -1.3090 o         1 MOL     -0.103007
     56 H20        -5.3920    0.2260   -1.8010 hn        1 MOL      0.340130
     57 H21        -7.3620   -1.5950   -3.0500 h1        1 MOL      0.107794
     58 H22        -4.9600   -0.7960   -3.8190 hc        1 MOL      0.087116
     59 H23        -5.3180   -2.5810   -3.8960 hc        1 MOL      0.087116
     60 H24        -3.0620   -2.1380   -4.2910 hn        1 MOL      0.331113
     61 H25        -1.9560   -2.2770   -2.9770 hn        1 MOL      0.331113
     62 N7         -6.5280   -2.3210   -0.0490 n         1 MOL     -0.054614
     63 C20        -6.6770   -3.2330    1.0570 c3        1 MOL     -0.308262
     64 C21        -5.4540   -4.0190    1.5010 c         1 MOL      0.580197
     65 O12        -5.4370   -4.8300    2.4140 o         1 MOL     -0.602053
     66 H26        -6.4330   -1.3330    0.0860 hn        1 MOL      0.193333
     67 H27        -7.5160   -3.8930    0.8450 h1        1 MOL      0.117773
     68 H28        -6.9830   -2.6670    1.9360 h1        1 MOL      0.117773
     69 N8         -4.2770   -3.6640    1.0190 n         1 MOL     -0.131880
     70 C22        -3.0360   -4.3720    1.2660 c3        1 MOL     -0.218748
     71 C23        -1.8410   -3.5040    1.3770 c         1 MOL      0.605516
     72 O13        -1.9850   -2.3890    0.8360 o         1 MOL     -0.513247
     73 C24        -2.7170   -5.4080    0.2030 c3        1 MOL      0.565944
     74 C25        -3.5200   -6.7050    0.3310 c3        1 MOL     -0.594681
     75 O14        -2.8840   -4.8840   -1.0600 oh        1 MOL     -0.553058
     76 H29        -4.3080   -2.9640    0.2990 hn        1 MOL      0.016670
     77 H30        -3.0950   -5.0080    2.1490 h1        1 MOL      0.095731
     78 H31        -1.6550   -5.6710    0.2400 h1        1 MOL     -0.031740
     79 H32        -2.8610   -3.9230   -1.0420 ho        1 MOL      0.232326
     80 H33        -4.5720   -6.5500    0.0780 hc        1 MOL      0.141750
     81 H34        -3.1040   -7.4480   -0.3470 hc        1 MOL      0.141750
     82 H35        -3.5530   -7.0920    1.3460 hc        1 MOL      0.141750
     83 N9         -0.7530   -3.8700    2.0030 n         1 MOL     -0.599552
     84 C26         0.4510   -3.0840    1.9790 c3        1 MOL      0.012931
     85 C27         1.1420   -3.1880    0.6300 c         1 MOL      0.551585
     86 O15         1.2670   -4.2890    0.0960 o         1 MOL     -0.573829
     87 C28         1.4470   -3.3010    3.1810 c3        1 MOL      0.498267
     88 C29         0.6830   -3.2180    4.5300 c3        1 MOL      0.021563
     89 C30         2.7020   -2.5200    3.1320 c3        1 MOL     -0.164906
     90 C31         1.5340   -3.6640    5.7580 c3        1 MOL     -0.206336
     91 H36        -0.7390   -4.7760    2.4480 hn        1 MOL      0.294798
     92 H37         0.1740   -2.0450    2.0860 h1        1 MOL      0.040264
     93 H38         1.7600   -4.3230    2.9880 hc        1 MOL     -0.127096
     94 H39        -0.1890   -3.8610    4.4750 hc        1 MOL     -0.018516
     95 H40         0.3210   -2.2000    4.5890 hc        1 MOL     -0.018516
     96 H41         3.3670   -2.8520    3.9400 hc        1 MOL      0.004057
     97 H42         3.1480   -2.7240    2.1620 hc        1 MOL      0.004057
     98 H43         2.4400   -1.4740    3.2650 hc        1 MOL      0.004057
     99 H44         2.1450   -2.8310    6.0800 hc        1 MOL      0.042830
    100 H45         0.8770   -3.9170    6.5950 hc        1 MOL      0.042830
    101 H46         2.1000   -4.5620    5.5050 hc        1 MOL      0.042830
    102 N10         1.6430   -2.0650    0.1050 n         1 MOL     -0.188827
    103 C32         2.4510   -1.9720   -1.2120 c3        1 MOL      0.119405
    104 C33         3.8750   -1.4330   -0.9980 c         1 MOL      0.266184
    105 O16         4.1520   -0.9050    0.0860 o         1 MOL     -0.251041
    106 C34         1.7950   -1.0590   -2.1970 c3        1 MOL     -0.129762
    107 C35         0.3730   -1.4720   -2.5890 c         1 MOL      0.719144
    108 O17        -0.5930   -1.4330   -1.7820 o         1 MOL     -0.671830
    109 O18         0.0870   -1.9070   -3.7320 o         1 MOL     -0.671830
    110 H47         1.4380   -1.2240    0.6160 hn        1 MOL     -0.187387
    111 H48         2.5590   -2.9410   -1.6960 h1        1 MOL      0.059415
    112 H49         2.2970   -1.0500   -3.1680 hc        1 MOL      0.029145
    113 H50         1.5950   -0.1150   -1.6870 hc        1 MOL      0.029145
    114 N11         4.7940   -1.5780   -1.9010 n         1 MOL     -0.457599
    115 C36         6.1640   -1.4550   -1.5690 c3        1 MOL      0.305082
    116 C37         6.6970   -0.1120   -1.0390 c         1 MOL      0.156442
    117 O19         7.5640   -0.0580   -0.1220 o         1 MOL     -0.484528
    118 C38         7.0620   -2.0000   -2.6880 c3        1 MOL     -0.329256
    119 C39         8.5980   -1.8360   -2.4770 ca        1 MOL      0.125810
    120 C40         9.3910   -2.8620   -1.9630 ca        1 MOL     -0.117270
    121 C41         9.1980   -0.6350   -2.9800 ca        1 MOL     -0.117270
    122 C42        10.7730   -2.6700   -1.8500 ca        1 MOL     -0.215050
    123 C43        10.5860   -0.4410   -2.7920 ca        1 MOL     -0.215050
    124 C44        11.3330   -1.4170   -2.1510 ca        1 MOL      0.025149
    125 H51         4.4960   -1.9250   -2.8050 hn        1 MOL      0.322070
    126 H52         6.3420   -2.2370   -0.8310 h1        1 MOL      0.084157
    127 H53         6.7950   -1.5370   -3.6460 hc        1 MOL      0.082762
    128 H54         6.9630   -3.0810   -2.8210 hc        1 MOL      0.082762
    129 H55         8.9150   -3.7740   -1.6510 ha        1 MOL      0.119908
    130 H56         8.6050    0.1750   -3.3850 ha        1 MOL      0.119908
    131 H57        11.3870   -3.4090   -1.3640 ha        1 MOL      0.131586
    132 H58        11.0050    0.5200   -3.0660 ha        1 MOL      0.131586
    133 H59        12.3870   -1.2540   -1.9440 ha        1 MOL      0.066081
    134 N12         6.2010    1.0230   -1.4790 n         1 MOL      0.081526
    135 C45         6.5510    2.3450   -0.9430 c3        1 MOL      0.008786
    136 C46         5.9130    2.4870    0.4070 c         1 MOL      0.405854
    137 O20         6.5190    3.2190    1.1690 o         1 MOL     -0.517056
    138 C47         6.0980    3.3360   -1.9450 c3        1 MOL     -0.065429
    139 C48         5.7620    2.5690   -3.1530 c3        1 MOL      0.067988
    140 C49         5.4170    1.1680   -2.7370 c3        1 MOL     -0.066371
    141 H60         7.5970    2.6280   -0.8950 h1        1 MOL      0.076068
    142 H61         5.1240    3.6980   -1.5930 hc        1 MOL      0.029201
    143 H62         6.8510    4.1170   -2.0900 hc        1 MOL      0.029201
    144 H63         5.0180    3.0240   -3.8130 hc        1 MOL     -0.006309
    145 H64         6.6070    2.4660   -3.8310 hc        1 MOL     -0.006309
    146 H65         4.3490    1.0800   -2.5650 h1        1 MOL      0.047334
    147 H66         5.7320    0.5000   -3.5350 h1        1 MOL      0.047334
    148 N13         4.7700    1.7780    0.6440 n         1 MOL     -0.180914
    149 C50         4.1070    1.6740    1.9470 c3        1 MOL     -0.071816
    150 C51         4.7610    0.7240    3.0000 c         1 MOL      0.452669
    151 O21         4.8280    1.1060    4.1620 o         1 MOL     -0.569494
    152 C52         2.6210    1.3090    1.7290 c3        1 MOL     -0.068134
    153 C53         1.7940    2.1850    0.7340 c3        1 MOL     -0.006057
    154 C54         0.4260    1.4810    0.4350 c         1 MOL      0.394604
    155 O22        -0.3560    1.9800   -0.3840 o         1 MOL     -0.591107
    156 O23        -0.0110    0.5260    1.1390 o         1 MOL     -0.591107
    157 H67         4.4110    1.0670    0.0280 hn        1 MOL      0.133843
    158 H68         4.0720    2.6830    2.3860 h1        1 MOL      0.094141
    159 H69         2.1160    1.1440    2.6900 hc        1 MOL      0.088960
    160 H70         2.5810    0.2830    1.3630 hc        1 MOL      0.088960
    161 H71         2.3390    2.3300   -0.2000 hc        1 MOL      0.024600
    162 H72         1.6900    3.1530    1.2090 hc        1 MOL      0.024600
    163 N14         5.2600   -0.3960    2.5110 n         1 MOL      0.017010
    164 C55         6.3260   -1.1540    3.0690 c3        1 MOL     -0.071333
    165 H73         6.3270   -1.0360    4.1530 h1        1 MOL      0.030813
    166 H74         6.1950   -2.2060    2.8190 h1        1 MOL      0.030813
    167 H75         7.2750   -0.7990    2.6660 h1        1 MOL      0.030813
    168 H76         5.1720   -0.6080    1.5210 hn        1 MOL      0.024898
    169 Ca1        -2.0290   -0.0350   -0.3410 Ca        1 MOL      1.592806
    170 O24        -4.5450   -0.1830    0.9770 oh        1 MOL     -0.801406
    171 H77        -4.6350    0.7620    0.8740 ho        1 MOL      0.385173
    172 H78        -4.1400   -0.2940    1.8350 ho        1 MOL      0.385173
    173 O25        -2.0710   -0.1170    2.7700 oh        1 MOL     -0.801406
    174 H79        -2.2640   -0.1310    3.7080 ho        1 MOL      0.385173
    175 H80        -1.2120    0.2950    2.7040 ho        1 MOL      0.385173
@<TRIPOS>BOND
     1    1    2 1   
     2    1    4 1   
     3    1    5 1   
     4    1    6 1   
     5    2    3 2   
     6    2    7 1   
     7    7    8 1   
     8    7   15 1   
     9    8    9 1   
    10    8   11 1   
    11    8   16 1   
    12    9   10 2   
    13    9   19 1   
    14   11   12 1   
    15   11   17 1   
    16   11   18 1   
    17   12   13 1   
    18   12   14 1   
    19   19   20 1   
    20   19   24 1   
    21   20   21 1   
    22   20   23 1   
    23   20   25 1   
    24   21   22 2   
    25   21   29 1   
    26   23   26 1   
    27   23   27 1   
    28   23   28 1   
    29   29   30 1   
    30   29   37 1   
    31   30   31 1   
    32   30   33 1   
    33   30   38 1   
    34   31   32 2   
    35   31   41 1   
    36   33   34 1   
    37   33   39 1   
    38   33   40 1   
    39   34   35 1   
    40   34   36 1   
    41   41   42 1   
    42   41   45 1   
    43   42   43 1   
    44   42   46 1   
    45   42   47 1   
    46   43   44 2   
    47   43   48 1   
    48   48   49 1   
    49   48   56 1   
    50   49   50 1   
    51   49   52 1   
    52   49   57 1   
    53   50   51 2   
    54   50   62 1   
    55   52   53 1   
    56   52   58 1   
    57   52   59 1   
    58   53   54 1   
    59   53   55 2   
    60   54   60 1   
    61   54   61 1   
    62   62   63 1   
    63   62   66 1   
    64   63   64 1   
    65   63   67 1   
    66   63   68 1   
    67   64   65 2   
    68   64   69 1   
    69   69   70 1   
    70   69   76 1   
    71   70   71 1   
    72   70   73 1   
    73   70   77 1   
    74   71   72 2   
    75   71   83 1   
    76   73   74 1   
    77   73   75 1   
    78   73   78 1   
    79   74   80 1   
    80   74   81 1   
    81   74   82 1   
    82   75   79 1   
    83   83   84 1   
    84   83   91 1   
    85   84   85 1   
    86   84   87 1   
    87   84   92 1   
    88   85   86 2   
    89   85  102 1   
    90   87   88 1   
    91   87   89 1   
    92   87   93 1   
    93   88   90 1   
    94   88   94 1   
    95   88   95 1   
    96   89   96 1   
    97   89   97 1   
    98   89   98 1   
    99   90   99 1   
   100   90  100 1   
   101   90  101 1   
   102  102  103 1   
   103  102  110 1   
   104  103  104 1   
   105  103  106 1   
   106  103  111 1   
   107  104  105 2   
   108  104  114 1   
   109  106  107 1   
   110  106  112 1   
   111  106  113 1   
   112  107  108 1   
   113  107  109 1   
   114  114  115 1   
   115  114  125 1   
   116  115  116 1   
   117  115  118 1   
   118  115  126 1   
   119  116  117 2   
   120  116  134 1   
   121  118  119 1   
   122  118  127 1   
   123  118  128 1   
   124  119  120 ar  
   125  119  121 ar  
   126  120  122 ar  
   127  120  129 1   
   128  121  123 ar  
   129  121  130 1   
   130  122  124 ar  
   131  122  131 1   
   132  123  124 ar  
   133  123  132 1   
   134  124  133 1   
   135  134  135 1   
   136  134  140 1   
   137  135  136 1   
   138  135  138 1   
   139  135  141 1   
   140  136  137 2   
   141  136  148 1   
   142  138  139 1   
   143  138  142 1   
   144  138  143 1   
   145  139  140 1   
   146  139  144 1   
   147  139  145 1   
   148  140  146 1   
   149  140  147 1   
   150  148  149 1   
   151  148  157 1   
   152  149  150 1   
   153  149  152 1   
   154  149  158 1   
   155  150  151 2   
   156  150  163 1   
   157  152  153 1   
   158  152  159 1   
   159  152  160 1   
   160  153  154 1   
   161  153  161 1   
   162  153  162 1   
   163  154  155 1   
   164  154  156 1   
   165  163  164 1   
   166  163  168 1   
   167  164  165 1   
   168  164  166 1   
   169  164  167 1   
   170  170  171 1   
   171  170  172 1   
   172  173  174 1   
   173  173  175 1   
@<TRIPOS>SUBSTRUCTURE
     1 MOL         1 TEMP              0 ****  ****    0 ROOT
