@<TRIPOS>MOLECULE
MOL
  179   176     1     0     0
SMALL
resp


@<TRIPOS>ATOM
      1 C1          0.1580    4.5360    4.4780 c3        1 MOL     -0.506434
      2 C2         -0.3120    3.9850    3.1390 c         1 MOL      0.721230
      3 O1          0.2350    4.2560    2.0670 o         1 MOL     -0.570170
      4 H1          1.2460    4.5050    4.5210 hc        1 MOL      0.129444
      5 H2         -0.1800    5.5670    4.5860 hc        1 MOL      0.129444
      6 H3         -0.2540    3.9310    5.2850 hc        1 MOL      0.129444
      7 N1         -1.3940    3.2190    3.1620 n         1 MOL     -0.566968
      8 C3         -1.8410    2.6320    1.9010 c3        1 MOL      0.011619
      9 C4         -2.7560    3.6160    1.1200 c         1 MOL      0.467298
     10 O2         -3.9520    3.8160    1.4190 o         1 MOL     -0.521343
     11 C5         -2.6050    1.3150    2.2660 c3        1 MOL     -0.089455
     12 C6         -3.1670    0.4860    1.2020 c         1 MOL      0.720448
     13 O3         -2.9470    0.7850   -0.0040 o         1 MOL     -0.730160
     14 O4         -3.9960   -0.3790    1.5450 o         1 MOL     -0.730160
     15 H4         -1.7260    2.8650    4.0500 hn        1 MOL      0.324640
     16 H5         -0.9720    2.2790    1.3500 h1        1 MOL      0.025565
     17 H6         -3.4390    1.7050    2.8540 hc        1 MOL      0.047282
     18 H7         -2.0280    0.7000    2.9520 hc        1 MOL      0.047282
     19 N2         -2.1960    4.4460    0.2070 n         1 MOL     -0.158184
     20 C7         -2.9530    5.6350   -0.3540 c3        1 MOL      0.094720
     21 C8         -3.8200    5.2270   -1.5230 c         1 MOL      0.412625
     22 O5         -4.7220    5.9580   -1.9780 o         1 MOL     -0.576525
     23 C9         -2.0350    6.7440   -0.6260 c3        1 MOL     -0.250412
     24 C10        -1.3010    7.2630    0.6580 c3        1 MOL      0.088617
     25 C11        -2.2190    7.8940    1.6900 c3        1 MOL     -0.122715
     26 C12        -1.4670    8.5550    2.8430 c3        1 MOL      0.048139
     27 N3         -2.3560    9.1220    3.8870 n4        1 MOL     -0.286727
     28 H8         -1.2090    4.4260   -0.0080 hn        1 MOL      0.276932
     29 H9         -3.6040    6.0550    0.4120 h1        1 MOL      0.035260
     30 H10        -2.6570    7.5530   -1.0060 hc        1 MOL      0.093838
     31 H11        -1.3500    6.4870   -1.4320 hc        1 MOL      0.093838
     32 H12        -0.5180    7.9710    0.3630 hc        1 MOL      0.010118
     33 H13        -0.7210    6.5010    1.1760 hc        1 MOL      0.010118
     34 H14        -2.7800    7.0680    2.1070 hc        1 MOL      0.055423
     35 H15        -2.8280    8.6050    1.1300 hc        1 MOL      0.055423
     36 H16        -0.8210    9.2860    2.3510 hx        1 MOL      0.075083
     37 H17        -0.8310    7.7800    3.2580 hx        1 MOL      0.075083
     38 H18        -1.8770    9.6440    4.6040 hn        1 MOL      0.310568
     39 H19        -2.9680    9.7020    3.3310 hn        1 MOL      0.310568
     40 H20        -3.0130    8.4720    4.2810 hn        1 MOL      0.310568
     41 N4         -3.7860    4.0070   -2.0040 n         1 MOL     -0.090800
     42 C13        -4.6600    3.4510   -3.0060 c3        1 MOL      0.055284
     43 C14        -5.6930    2.5470   -2.2630 c         1 MOL      0.370489
     44 O6         -6.7790    2.2880   -2.8050 o         1 MOL     -0.543700
     45 C15        -3.9160    2.4970   -3.9740 c3        1 MOL     -0.326341
     46 C16        -2.8720    1.6820   -3.3360 c         1 MOL      0.768230
     47 O7         -1.7860    2.1370   -2.9550 o         1 MOL     -0.702435
     48 O8         -3.0840    0.4370   -3.2810 o         1 MOL     -0.702435
     49 H21        -3.0280    3.4300   -1.6670 hn        1 MOL      0.030196
     50 H22        -5.2070    4.1810   -3.6140 h1        1 MOL      0.110509
     51 H23        -3.3950    3.0770   -4.7380 hc        1 MOL      0.094748
     52 H24        -4.5870    1.8030   -4.4730 hc        1 MOL      0.094748
     53 N5         -5.4880    2.0970   -1.0100 n         1 MOL      0.097106
     54 C17        -6.4830    1.4390   -0.1210 c3        1 MOL     -0.507066
     55 C18        -6.7880   -0.0410   -0.3620 c         1 MOL      0.605995
     56 O9         -7.7790   -0.5470    0.1700 o         1 MOL     -0.577344
     57 H25        -4.6180    2.3930   -0.5980 hn        1 MOL     -0.025291
     58 H26        -7.4520    1.8900   -0.3190 h1        1 MOL      0.196391
     59 H27        -6.1210    1.5150    0.9030 h1        1 MOL      0.196391
     60 N6         -5.8400   -0.6770   -1.0510 n         1 MOL     -0.161223
     61 C19        -6.0150   -2.0940   -1.4150 c3        1 MOL     -0.153905
     62 C20        -5.7770   -3.1060   -0.2500 c         1 MOL      0.268853
     63 O10        -6.0630   -4.2950   -0.3800 o         1 MOL     -0.429651
     64 C21        -5.2210   -2.5080   -2.6430 c3        1 MOL     -0.056704
     65 C22        -3.7950   -3.0120   -2.3890 c         1 MOL      0.532595
     66 N7         -3.3500   -4.0980   -3.0530 n         1 MOL     -0.686853
     67 O11        -2.9630   -2.4460   -1.6700 o         1 MOL     -0.572037
     68 H28        -5.0310   -0.1620   -1.3720 hn        1 MOL      0.128815
     69 H29        -7.0490   -2.1370   -1.7770 h1        1 MOL      0.143143
     70 H30        -5.1480   -1.7620   -3.4310 hc        1 MOL      0.060290
     71 H31        -5.7920   -3.3820   -2.9710 hc        1 MOL      0.060290
     72 H32        -3.9280   -4.6280   -3.6890 hn        1 MOL      0.342234
     73 H33        -2.3950   -4.3310   -2.8450 hn        1 MOL      0.342234
     74 N8         -5.4630   -2.5770    0.9440 n         1 MOL     -0.126460
     75 C23        -5.2100   -3.3530    2.1590 c3        1 MOL     -0.258352
     76 C24        -3.7610   -3.7000    2.4150 c         1 MOL      0.621994
     77 O12        -3.5360   -4.5440    3.3090 o         1 MOL     -0.585900
     78 H34        -5.2780   -1.5880    0.9780 hn        1 MOL      0.315436
     79 H35        -5.8990   -4.1950    2.1610 h1        1 MOL      0.125107
     80 H36        -5.6170   -2.6630    2.8990 h1        1 MOL      0.125107
     81 N9         -2.8350   -3.1920    1.6730 n         1 MOL     -0.464579
     82 C25        -1.4380   -3.6850    1.7190 c3        1 MOL      0.399877
     83 C26        -0.4110   -2.5210    1.3960 c         1 MOL      0.402807
     84 O13        -0.7630   -1.5510    0.7410 o         1 MOL     -0.547811
     85 C27        -1.1830   -4.7010    0.6170 c3        1 MOL      0.323759
     86 C28        -1.8700   -6.0480    0.7300 ca        1 MOL     -0.299296
     87 C29        -3.1370   -6.2500    0.1640 ca        1 MOL     -0.000945
     88 C30        -1.1860   -7.0390    1.5070 ca        1 MOL     -0.000945
     89 C31        -3.7650   -7.4950    0.3530 ca        1 MOL     -0.316774
     90 C32        -1.8290   -8.3130    1.5860 ca        1 MOL     -0.316774
     91 C33        -3.1170   -8.5350    0.9910 ca        1 MOL      0.422885
     92 O14        -3.6890   -9.7330    1.1960 oh        1 MOL     -0.491655
     93 H37        -3.1830   -2.5210    1.0180 hn        1 MOL      0.237977
     94 H38        -1.3610   -4.1420    2.7010 h1        1 MOL     -0.047270
     95 H39        -0.1040   -4.8490    0.5890 hc        1 MOL     -0.079758
     96 H40        -1.4570   -4.2220   -0.3300 hc        1 MOL     -0.079758
     97 H41        -3.5080   -5.3530   -0.3060 ha        1 MOL      0.082449
     98 H42        -0.2010   -6.8580    1.9070 ha        1 MOL      0.082449
     99 H43        -4.7470   -7.6150   -0.0640 ha        1 MOL      0.143458
    100 H44        -1.3540   -9.1340    2.0930 ha        1 MOL      0.143458
    101 H45        -3.2460  -10.1580    1.9440 ho        1 MOL      0.348821
    102 N10         0.8470   -2.6870    1.8750 n         1 MOL     -0.500513
    103 C34         2.0350   -1.8410    1.5100 c3        1 MOL     -0.072201
    104 C35         3.3390   -2.7200    1.1770 c         1 MOL      0.605931
    105 O15         3.5150   -3.7610    1.7830 o         1 MOL     -0.553621
    106 C36         2.2880   -0.6360    2.4610 c3        1 MOL      0.073013
    107 C37         2.3890   -1.2140    3.9440 c3        1 MOL      0.026463
    108 C38         1.1410    0.3860    2.3790 c3        1 MOL     -0.380925
    109 C39         3.2950   -0.3620    4.8470 c3        1 MOL     -0.116232
    110 H46         1.0970   -3.4950    2.4270 hn        1 MOL      0.260816
    111 H47         1.7780   -1.4330    0.5230 h1        1 MOL      0.200127
    112 H48         3.2370   -0.1760    2.1990 hc        1 MOL      0.017413
    113 H49         3.0030   -2.1170    3.9290 hc        1 MOL      0.026940
    114 H50         1.4020   -1.3110    4.3820 hc        1 MOL      0.026940
    115 H51         1.3690    1.3760    2.7980 hc        1 MOL      0.126831
    116 H52         0.9120    0.6170    1.3420 hc        1 MOL      0.126831
    117 H53         0.2480   -0.1030    2.7640 hc        1 MOL      0.126831
    118 H54         2.8400    0.6090    5.0150 hc        1 MOL      0.021627
    119 H55         3.2260   -0.8740    5.8100 hc        1 MOL      0.021627
    120 H56         4.3450   -0.3300    4.5840 hc        1 MOL      0.021627
    121 N11         4.2400   -2.3200    0.3460 n         1 MOL     -0.343213
    122 C40         5.6590   -2.8600    0.1150 c3        1 MOL      0.001208
    123 C41         6.7680   -1.9460    0.5700 c         1 MOL      0.604547
    124 O16         6.5340   -0.8180    1.0660 o         1 MOL     -0.443719
    125 C42         5.7390   -3.2580   -1.4110 c3        1 MOL      0.023030
    126 O17         5.6560   -2.1490   -2.2410 oh        1 MOL     -0.511163
    127 H57         4.0120   -1.4630   -0.1420 hn        1 MOL      0.067121
    128 H58         5.8240   -3.7420    0.7260 h1        1 MOL      0.078870
    129 H59         4.9670   -3.9870   -1.6530 h1        1 MOL      0.063725
    130 H60         6.6980   -3.7700   -1.5130 h1        1 MOL      0.063725
    131 H61         4.7220   -1.9530   -2.3300 ho        1 MOL      0.424784
    132 N12         8.0080   -2.4050    0.3820 n         1 MOL     -0.591888
    133 C43         9.0840   -1.4350    0.5740 c3        1 MOL      0.200833
    134 C44         9.0310   -0.2150   -0.3470 c         1 MOL      0.465147
    135 O18         9.3190    0.8770    0.1480 o         1 MOL     -0.523049
    136 C45        10.3440   -2.2250    0.3670 c3        1 MOL     -0.149126
    137 H62         8.2090   -3.2730   -0.0980 hn        1 MOL      0.333677
    138 H63         9.0050   -1.0400    1.5850 h1        1 MOL      0.057477
    139 H64        10.3100   -3.2350    0.7730 hc        1 MOL      0.040393
    140 H65        10.5160   -2.3600   -0.6930 hc        1 MOL      0.040393
    141 H66        11.1860   -1.6970    0.8250 hc        1 MOL      0.040393
    142 N13         8.6860   -0.4660   -1.5920 n         1 MOL     -0.379026
    143 C46         8.4940    0.4920   -2.7130 c3        1 MOL      0.076307
    144 C47         7.3600    1.5180   -2.5000 c         1 MOL      0.331002
    145 O19         7.3050    2.5350   -3.1430 o         1 MOL     -0.508290
    146 C48         8.3340   -0.2450   -4.0230 c3        1 MOL     -0.293020
    147 H67         8.3430   -1.3910   -1.7750 hn        1 MOL      0.295977
    148 H68         9.4220    1.0410   -2.8570 h1        1 MOL      0.108064
    149 H69         9.2780   -0.7690   -4.2090 hc        1 MOL      0.087643
    150 H70         7.5420   -0.9750   -3.8490 hc        1 MOL      0.087643
    151 H71         7.9340    0.3310   -4.8590 hc        1 MOL      0.087643
    152 N14         6.3560    1.1310   -1.8040 n         1 MOL      0.088666
    153 C49         5.3500    1.9890   -1.2610 c3        1 MOL     -0.130250
    154 C50         5.7420    2.7690   -0.0310 c         1 MOL      0.490086
    155 O20         5.5930    3.9970    0.0190 o         1 MOL     -0.535284
    156 C51         4.0540    1.1350   -1.0790 c3        1 MOL      0.002548
    157 C52         2.7510    1.8900   -1.2160 c3        1 MOL     -0.123590
    158 C53         1.4580    1.0820   -1.2780 c         1 MOL      0.788109
    159 O21         1.4400   -0.1580   -1.5410 o         1 MOL     -0.762079
    160 O22         0.4150    1.6780   -0.9920 o         1 MOL     -0.762079
    161 H72         6.3330    0.1420   -1.5820 hn        1 MOL     -0.028494
    162 H73         5.1380    2.7930   -1.9630 h1        1 MOL      0.100155
    163 H74         4.0320    0.5910   -0.1300 hc        1 MOL      0.008987
    164 H75         4.0300    0.3710   -1.8550 hc        1 MOL      0.008987
    165 H76         2.7470    2.4730   -2.1380 hc        1 MOL      0.044417
    166 H77         2.6310    2.6660   -0.4560 hc        1 MOL      0.044417
    167 N15         6.3450    2.1250    1.0250 n         1 MOL     -0.179881
    168 C54         6.7100    2.6690    2.3380 c3        1 MOL     -0.183246
    169 H78         7.7940    2.6540    2.4490 h1        1 MOL      0.087570
    170 H79         6.3510    3.6950    2.4190 h1        1 MOL      0.087570
    171 H80         6.2570    2.0620    3.1220 h1        1 MOL      0.087570
    172 H81         6.4600    1.1280    0.9140 hn        1 MOL      0.151977
    173 Ca1        -1.2400   -0.2210   -1.6450 Ca        1 MOL      1.737014
    174 O23        -0.2470   -2.7200   -2.2110 oh        1 MOL     -0.802328
    175 H82         0.3120   -3.3930   -1.8270 ho        1 MOL      0.390356
    176 H83        -0.5930   -3.1180   -3.0160 ho        1 MOL      0.390356
    177 O24        -0.3770   -0.3540   -4.2350 oh        1 MOL     -0.802328
    178 H84        -0.9780   -0.4340   -4.9700 ho        1 MOL      0.390356
    179 H85         0.4880   -0.3640   -4.6410 ho        1 MOL      0.390356
@<TRIPOS>BOND
     1    1    2 1   
     2    1    4 1   
     3    1    5 1   
     4    1    6 1   
     5    2    3 2   
     6    2    7 1   
     7    7    8 1   
     8    7   15 1   
     9    8    9 1   
    10    8   11 1   
    11    8   16 1   
    12    9   10 2   
    13    9   19 1   
    14   11   12 1   
    15   11   17 1   
    16   11   18 1   
    17   12   13 1   
    18   12   14 1   
    19   19   20 1   
    20   19   28 1   
    21   20   21 1   
    22   20   23 1   
    23   20   29 1   
    24   21   22 2   
    25   21   41 1   
    26   23   24 1   
    27   23   30 1   
    28   23   31 1   
    29   24   25 1   
    30   24   32 1   
    31   24   33 1   
    32   25   26 1   
    33   25   34 1   
    34   25   35 1   
    35   26   27 1   
    36   26   36 1   
    37   26   37 1   
    38   27   38 1   
    39   27   39 1   
    40   27   40 1   
    41   41   42 1   
    42   41   49 1   
    43   42   43 1   
    44   42   45 1   
    45   42   50 1   
    46   43   44 2   
    47   43   53 1   
    48   45   46 1   
    49   45   51 1   
    50   45   52 1   
    51   46   47 1   
    52   46   48 1   
    53   53   54 1   
    54   53   57 1   
    55   54   55 1   
    56   54   58 1   
    57   54   59 1   
    58   55   56 2   
    59   55   60 1   
    60   60   61 1   
    61   60   68 1   
    62   61   62 1   
    63   61   64 1   
    64   61   69 1   
    65   62   63 2   
    66   62   74 1   
    67   64   65 1   
    68   64   70 1   
    69   64   71 1   
    70   65   66 1   
    71   65   67 2   
    72   66   72 1   
    73   66   73 1   
    74   74   75 1   
    75   74   78 1   
    76   75   76 1   
    77   75   79 1   
    78   75   80 1   
    79   76   77 2   
    80   76   81 1   
    81   81   82 1   
    82   81   93 1   
    83   82   83 1   
    84   82   85 1   
    85   82   94 1   
    86   83   84 2   
    87   83  102 1   
    88   85   86 1   
    89   85   95 1   
    90   85   96 1   
    91   86   87 ar  
    92   86   88 ar  
    93   87   89 ar  
    94   87   97 1   
    95   88   90 ar  
    96   88   98 1   
    97   89   91 ar  
    98   89   99 1   
    99   90   91 ar  
   100   90  100 1   
   101   91   92 1   
   102   92  101 1   
   103  102  103 1   
   104  102  110 1   
   105  103  104 1   
   106  103  106 1   
   107  103  111 1   
   108  104  105 2   
   109  104  121 1   
   110  106  107 1   
   111  106  108 1   
   112  106  112 1   
   113  107  109 1   
   114  107  113 1   
   115  107  114 1   
   116  108  115 1   
   117  108  116 1   
   118  108  117 1   
   119  109  118 1   
   120  109  119 1   
   121  109  120 1   
   122  121  122 1   
   123  121  127 1   
   124  122  123 1   
   125  122  125 1   
   126  122  128 1   
   127  123  124 2   
   128  123  132 1   
   129  125  126 1   
   130  125  129 1   
   131  125  130 1   
   132  126  131 1   
   133  132  133 1   
   134  132  137 1   
   135  133  134 1   
   136  133  136 1   
   137  133  138 1   
   138  134  135 2   
   139  134  142 1   
   140  136  139 1   
   141  136  140 1   
   142  136  141 1   
   143  142  143 1   
   144  142  147 1   
   145  143  144 1   
   146  143  146 1   
   147  143  148 1   
   148  144  145 2   
   149  144  152 1   
   150  146  149 1   
   151  146  150 1   
   152  146  151 1   
   153  152  153 1   
   154  152  161 1   
   155  153  154 1   
   156  153  156 1   
   157  153  162 1   
   158  154  155 2   
   159  154  167 1   
   160  156  157 1   
   161  156  163 1   
   162  156  164 1   
   163  157  158 1   
   164  157  165 1   
   165  157  166 1   
   166  158  159 1   
   167  158  160 1   
   168  167  168 1   
   169  167  172 1   
   170  168  169 1   
   171  168  170 1   
   172  168  171 1   
   173  174  175 1   
   174  174  176 1   
   175  177  178 1   
   176  177  179 1   
@<TRIPOS>SUBSTRUCTURE
     1 MOL         1 TEMP              0 ****  ****    0 ROOT
