@<TRIPOS>MOLECULE
MOL
  179   176     1     0     0
SMALL
resp


@<TRIPOS>ATOM
      1 C1          2.3680    2.2270    5.1800 c3        1 MOL     -0.535169
      2 C2          1.6040    2.2040    3.9120 c         1 MOL      0.650066
      3 O1          2.2110    2.5220    2.9070 o         1 MOL     -0.585246
      4 H1          1.6770    2.1600    6.0210 hc        1 MOL      0.146696
      5 H2          3.0550    1.3810    5.2060 hc        1 MOL      0.146696
      6 H3          2.9330    3.1570    5.2480 hc        1 MOL      0.146696
      7 N1          0.3070    1.9340    3.8870 n         1 MOL     -0.334310
      8 C3         -0.4680    1.9120    2.6390 c3        1 MOL     -0.028755
      9 C4         -0.6780    3.3050    2.0160 c         1 MOL      0.334398
     10 O2         -1.6580    3.9680    2.3120 o         1 MOL     -0.465793
     11 C5         -1.8590    1.2280    2.8460 c3        1 MOL     -0.229257
     12 C6         -2.8220    1.1560    1.6640 c         1 MOL      0.694356
     13 O3         -3.9730    0.7890    1.8790 o         1 MOL     -0.734178
     14 O4         -2.3820    1.4870    0.5770 o         1 MOL     -0.734178
     15 H4         -0.1200    1.6830    4.7700 hn        1 MOL      0.265678
     16 H5          0.1460    1.4150    1.8840 h1        1 MOL     -0.011499
     17 H6         -2.3650    1.8090    3.6230 hc        1 MOL      0.096882
     18 H7         -1.6670    0.2440    3.2720 hc        1 MOL      0.096882
     19 N2          0.1400    3.8540    1.1490 n         1 MOL     -0.197545
     20 C7          0.1860    5.2600    0.7340 c3        1 MOL      0.102770
     21 C8         -1.0970    5.7030   -0.0070 c         1 MOL      0.347475
     22 O5         -1.5790    6.8400    0.1860 o         1 MOL     -0.548474
     23 C9          1.4910    5.6340   -0.0210 c3        1 MOL     -0.233501
     24 C10         2.6400    5.6980    0.8460 c3        1 MOL      0.332530
     25 C11         3.9640    6.0000    0.1910 c3        1 MOL     -0.309379
     26 C12         4.5160    4.9790   -0.8540 c3        1 MOL      0.158902
     27 N3          5.7230    5.4590   -1.5370 n4        1 MOL     -0.550772
     28 H8          0.9350    3.2980    0.8520 hn        1 MOL      0.337083
     29 H9          0.1550    5.8290    1.6660 h1        1 MOL      0.064604
     30 H10         1.4010    6.5740   -0.5530 hc        1 MOL      0.038078
     31 H11         1.6860    4.8570   -0.7660 hc        1 MOL      0.038078
     32 H12         2.6510    4.7530    1.3960 hc        1 MOL     -0.028961
     33 H13         2.4820    6.4530    1.6170 hc        1 MOL     -0.028961
     34 H14         4.6750    6.1200    1.0090 hc        1 MOL      0.083403
     35 H15         3.8690    6.9640   -0.3190 hc        1 MOL      0.083403
     36 H16         3.8560    4.6530   -1.6610 hx        1 MOL      0.088947
     37 H17         4.7280    4.0440   -0.3360 hx        1 MOL      0.088947
     38 H18         5.9310    4.8490   -2.3090 hn        1 MOL      0.376785
     39 H19         5.5040    6.3830   -1.8890 hn        1 MOL      0.376785
     40 H20         6.4610    5.6000   -0.8620 hn        1 MOL      0.376785
     41 N4         -1.7480    4.8600   -0.8550 n         1 MOL     -0.169291
     42 C13        -2.9330    5.2820   -1.6380 c3        1 MOL     -0.003107
     43 C14        -4.2280    4.9360   -0.9760 c         1 MOL      0.361191
     44 O6         -5.2970    5.2010   -1.5690 o         1 MOL     -0.533460
     45 C15        -2.7820    4.6850   -3.0550 c3        1 MOL     -0.127034
     46 C16        -2.4820    3.1550   -3.0740 c         1 MOL      0.790090
     47 O7         -2.8060    2.5960   -4.1460 o         1 MOL     -0.720622
     48 O8         -1.9090    2.4920   -2.1790 o         1 MOL     -0.720622
     49 H21        -1.3820    3.9130   -0.8900 hn        1 MOL      0.094699
     50 H22        -2.9440    6.3660   -1.7560 h1        1 MOL      0.110806
     51 H23        -1.8690    5.1270   -3.4380 hc        1 MOL      0.040605
     52 H24        -3.5670    5.0470   -3.7180 hc        1 MOL      0.040605
     53 N5         -4.1310    4.2340    0.1480 n         1 MOL      0.022542
     54 C17        -5.2370    3.8840    0.9960 c3        1 MOL     -0.405157
     55 C18        -6.0910    2.7420    0.3840 c         1 MOL      0.657926
     56 O9         -7.2560    2.6910    0.6680 o         1 MOL     -0.570595
     57 H25        -3.2230    4.1270    0.5890 hn        1 MOL      0.152506
     58 H26        -5.9160    4.7390    1.0650 h1        1 MOL      0.153513
     59 H27        -4.8570    3.5530    1.9620 h1        1 MOL      0.153513
     60 N6         -5.4390    1.9640   -0.4980 n         1 MOL     -0.235469
     61 C19        -6.1660    0.8710   -1.1070 c3        1 MOL     -0.187994
     62 C20        -6.5890   -0.2910   -0.3110 c         1 MOL      0.389242
     63 O10        -7.2140   -1.1810   -0.8270 o         1 MOL     -0.479582
     64 C21        -5.4880    0.4690   -2.4620 c3        1 MOL     -0.102716
     65 C22        -4.5830   -0.6970   -2.3750 c         1 MOL      0.492585
     66 N7         -4.8060   -1.7830   -3.0380 n         1 MOL     -0.718886
     67 O11        -3.5400   -0.5620   -1.7470 o         1 MOL     -0.567256
     68 H28        -4.4290    1.9500   -0.5340 hn        1 MOL      0.132827
     69 H29        -7.1000    1.3330   -1.4310 h1        1 MOL      0.154016
     70 H30        -4.9040    1.3360   -2.7750 hc        1 MOL      0.082623
     71 H31        -6.2750    0.2860   -3.1980 hc        1 MOL      0.082623
     72 H32        -5.7090   -1.9730   -3.4550 hn        1 MOL      0.375082
     73 H33        -3.9470   -2.2630   -3.2710 hn        1 MOL      0.375082
     74 N8         -6.2140   -0.3490    0.9580 n         1 MOL     -0.218670
     75 C23        -6.3450   -1.4560    1.9190 c3        1 MOL     -0.313154
     76 C24        -5.1970   -2.4140    1.8390 c         1 MOL      0.582804
     77 O12        -5.1390   -3.3980    2.5530 o         1 MOL     -0.583906
     78 H34        -5.5090    0.3060    1.2520 hn        1 MOL      0.306203
     79 H35        -7.2990   -1.9730    1.7910 h1        1 MOL      0.150791
     80 H36        -6.4290   -0.9890    2.9050 h1        1 MOL      0.150791
     81 N9         -4.1840   -2.1980    1.0240 n         1 MOL     -0.224015
     82 C25        -3.0390   -3.0890    0.9420 c3        1 MOL      0.059028
     83 C26        -1.6690   -2.3620    1.0740 c         1 MOL      0.407939
     84 O13        -1.5550   -1.1650    0.7670 o         1 MOL     -0.521703
     85 C27        -3.2610   -4.0340   -0.3110 c3        1 MOL      0.120193
     86 C28        -4.5060   -4.8510   -0.4650 ca        1 MOL     -0.088593
     87 C29        -5.6800   -4.2160   -0.8430 ca        1 MOL     -0.100284
     88 C30        -4.5130   -6.2640   -0.0750 ca        1 MOL     -0.100284
     89 C31        -6.9160   -4.9160   -0.8060 ca        1 MOL     -0.289086
     90 C32        -5.7450   -6.9600   -0.1320 ca        1 MOL     -0.289086
     91 C33        -6.9850   -6.2840   -0.4700 ca        1 MOL      0.369044
     92 O14        -8.2150   -6.8870   -0.4620 oh        1 MOL     -0.486346
     93 H37        -4.2300   -1.4020    0.4060 hn        1 MOL      0.377165
     94 H38        -3.1690   -3.7060    1.8320 h1        1 MOL      0.055366
     95 H39        -2.4340   -4.7100   -0.5530 hc        1 MOL     -0.018820
     96 H40        -3.2010   -3.4770   -1.2390 hc        1 MOL     -0.018820
     97 H41        -5.6900   -3.1430   -1.0230 ha        1 MOL      0.105584
     98 H42        -3.5840   -6.7410    0.2010 ha        1 MOL      0.105584
     99 H43        -7.8910   -4.4810   -0.9380 ha        1 MOL      0.141257
    100 H44        -5.7800   -7.9800    0.2160 ha        1 MOL      0.141257
    101 H45        -8.2050   -7.7580   -0.0670 ho        1 MOL      0.363519
    102 N10        -0.6180   -3.2010    1.3580 n         1 MOL     -0.544752
    103 C34         0.7780   -2.8100    1.4700 c3        1 MOL     -0.002318
    104 C35         1.5760   -3.6720    0.4410 c         1 MOL      0.492993
    105 O15         1.3560   -4.8850    0.3330 o         1 MOL     -0.567763
    106 C36         1.3730   -2.9280    2.9130 c3        1 MOL      0.157889
    107 C37         0.6270   -2.0460    3.9660 c3        1 MOL      0.184756
    108 C38         2.9010   -2.7110    2.8980 c3        1 MOL     -0.284911
    109 C39         0.9020   -2.5420    5.3830 c3        1 MOL     -0.185188
    110 H46        -0.8280   -4.1860    1.4140 hn        1 MOL      0.308712
    111 H47         0.8630   -1.7670    1.1710 h1        1 MOL      0.103483
    112 H48         1.2630   -3.9590    3.2300 hc        1 MOL      0.015778
    113 H49        -0.4580   -2.0900    3.8240 hc        1 MOL     -0.026643
    114 H50         0.9030   -0.9990    3.8890 hc        1 MOL     -0.026643
    115 H51         3.2430   -2.3860    3.8820 hc        1 MOL      0.054517
    116 H52         3.3900   -3.6300    2.5620 hc        1 MOL      0.054517
    117 H53         3.1690   -1.8830    2.2430 hc        1 MOL      0.054517
    118 H54         1.9520   -2.7020    5.6280 hc        1 MOL      0.031773
    119 H55         0.4550   -1.7790    6.0210 hc        1 MOL      0.031773
    120 H56         0.3570   -3.4840    5.4840 hc        1 MOL      0.031773
    121 N11         2.3090   -3.0490   -0.4500 n         1 MOL     -0.183746
    122 C40         3.2990   -3.5870   -1.3440 c3        1 MOL     -0.074262
    123 C41         4.6570   -3.5050   -0.7000 c         1 MOL      0.535215
    124 O16         4.9010   -2.7610    0.2980 o         1 MOL     -0.482341
    125 C42         3.2520   -2.7920   -2.6820 c3        1 MOL     -0.220437
    126 O17         3.9840   -1.5980   -2.6750 oh        1 MOL     -0.493123
    127 H57         2.2850   -2.0370   -0.4100 hn        1 MOL      0.352306
    128 H58         3.1750   -4.6420   -1.5650 h1        1 MOL      0.074941
    129 H59         2.2170   -2.5710   -2.9800 h1        1 MOL      0.126122
    130 H60         3.5820   -3.4540   -3.4880 h1        1 MOL      0.126122
    131 H61         3.9550   -1.1330   -3.5110 ho        1 MOL      0.408876
    132 N12         5.5850   -4.1260   -1.3820 n         1 MOL     -0.459302
    133 C43         7.0040   -4.1390   -1.0860 c3        1 MOL      0.141551
    134 C44         7.6720   -2.7780   -1.1570 c         1 MOL      0.446742
    135 O18         8.3970   -2.3310   -0.3270 o         1 MOL     -0.492379
    136 C45         7.8170   -5.1520   -1.8490 c3        1 MOL     -0.189642
    137 H62         5.2600   -4.6810   -2.1580 hn        1 MOL      0.315669
    138 H63         6.9950   -4.4460   -0.0330 h1        1 MOL      0.083303
    139 H64         7.8480   -4.7130   -2.8460 hc        1 MOL      0.059838
    140 H65         8.7670   -5.3610   -1.3580 hc        1 MOL      0.059838
    141 H66         7.1960   -6.0310   -2.0160 hc        1 MOL      0.059838
    142 N13         7.4270   -2.0580   -2.2300 n         1 MOL     -0.285415
    143 C46         7.7750   -0.6710   -2.4690 c3        1 MOL      0.043626
    144 C47         7.3190    0.2490   -1.3230 c         1 MOL      0.317549
    145 O19         8.0280    1.1860   -0.9150 o         1 MOL     -0.542958
    146 C48         7.3300   -0.1560   -3.8780 c3        1 MOL     -0.430312
    147 H67         6.9540   -2.5470   -2.9720 hn        1 MOL      0.227525
    148 H68         8.8590   -0.7970   -2.4260 h1        1 MOL      0.101832
    149 H69         6.2340   -0.1320   -3.8790 hc        1 MOL      0.131039
    150 H70         7.7100    0.8660   -3.9230 hc        1 MOL      0.131039
    151 H71         7.7860   -0.7590   -4.6620 hc        1 MOL      0.131039
    152 N14         6.2080   -0.0440   -0.7450 n         1 MOL      0.055328
    153 C49         5.6070    0.6270    0.4690 c3        1 MOL     -0.219239
    154 C50         6.2450    0.2240    1.7780 c         1 MOL      0.602702
    155 O20         6.3690    1.0610    2.5950 o         1 MOL     -0.563834
    156 C51         4.1120    0.4950    0.4960 c3        1 MOL      0.211380
    157 C52         3.4060    1.2260   -0.5860 c3        1 MOL      0.011600
    158 C53         1.9320    0.9030   -0.7540 c         1 MOL      0.715892
    159 O21         1.1760    1.8960   -1.1070 o         1 MOL     -0.768882
    160 O22         1.4330   -0.2310   -0.6800 o         1 MOL     -0.768882
    161 H72         5.6970   -0.8150   -1.1340 hn        1 MOL      0.064155
    162 H73         5.8400    1.6850    0.3820 h1        1 MOL      0.072836
    163 H74         3.6800    0.8250    1.4520 hc        1 MOL     -0.042335
    164 H75         3.9030   -0.5740    0.5240 hc        1 MOL     -0.042335
    165 H76         3.9250    1.0750   -1.5390 hc        1 MOL     -0.065882
    166 H77         3.4660    2.2980   -0.4050 hc        1 MOL     -0.065882
    167 N15         6.8420   -0.9620    1.8840 n         1 MOL     -0.170292
    168 C54         7.6960   -1.3790    2.9950 c3        1 MOL     -0.267747
    169 H78         7.0730   -1.6590    3.8450 h1        1 MOL      0.107919
    170 H79         8.2990   -2.2350    2.6900 h1        1 MOL      0.107919
    171 H80         8.3500   -0.5560    3.2800 h1        1 MOL      0.107919
    172 H81         6.6850   -1.7020    1.2150 hn        1 MOL      0.165028
    173 Ca1        -1.0190    0.3700   -1.2140 Ca        1 MOL      1.770472
    174 O23        -0.6780   -2.0110   -2.1760 oh        1 MOL     -0.888023
    175 H82        -0.0790   -2.7560   -2.0810 ho        1 MOL      0.408215
    176 H83        -1.3300   -2.3040   -2.8200 ho        1 MOL      0.408215
    177 O24        -1.1250    0.4990   -4.0020 oh        1 MOL     -0.888023
    178 H84        -1.8250    1.1540   -4.0680 ho        1 MOL      0.408215
    179 H85        -1.0360    0.1530   -4.8960 ho        1 MOL      0.408215
@<TRIPOS>BOND
     1    1    2 1   
     2    1    4 1   
     3    1    5 1   
     4    1    6 1   
     5    2    3 2   
     6    2    7 1   
     7    7    8 1   
     8    7   15 1   
     9    8    9 1   
    10    8   11 1   
    11    8   16 1   
    12    9   10 2   
    13    9   19 1   
    14   11   12 1   
    15   11   17 1   
    16   11   18 1   
    17   12   13 1   
    18   12   14 1   
    19   19   20 1   
    20   19   28 1   
    21   20   21 1   
    22   20   23 1   
    23   20   29 1   
    24   21   22 2   
    25   21   41 1   
    26   23   24 1   
    27   23   30 1   
    28   23   31 1   
    29   24   25 1   
    30   24   32 1   
    31   24   33 1   
    32   25   26 1   
    33   25   34 1   
    34   25   35 1   
    35   26   27 1   
    36   26   36 1   
    37   26   37 1   
    38   27   38 1   
    39   27   39 1   
    40   27   40 1   
    41   41   42 1   
    42   41   49 1   
    43   42   43 1   
    44   42   45 1   
    45   42   50 1   
    46   43   44 2   
    47   43   53 1   
    48   45   46 1   
    49   45   51 1   
    50   45   52 1   
    51   46   47 1   
    52   46   48 1   
    53   53   54 1   
    54   53   57 1   
    55   54   55 1   
    56   54   58 1   
    57   54   59 1   
    58   55   56 2   
    59   55   60 1   
    60   60   61 1   
    61   60   68 1   
    62   61   62 1   
    63   61   64 1   
    64   61   69 1   
    65   62   63 2   
    66   62   74 1   
    67   64   65 1   
    68   64   70 1   
    69   64   71 1   
    70   65   66 1   
    71   65   67 2   
    72   66   72 1   
    73   66   73 1   
    74   74   75 1   
    75   74   78 1   
    76   75   76 1   
    77   75   79 1   
    78   75   80 1   
    79   76   77 2   
    80   76   81 1   
    81   81   82 1   
    82   81   93 1   
    83   82   83 1   
    84   82   85 1   
    85   82   94 1   
    86   83   84 2   
    87   83  102 1   
    88   85   86 1   
    89   85   95 1   
    90   85   96 1   
    91   86   87 ar  
    92   86   88 ar  
    93   87   89 ar  
    94   87   97 1   
    95   88   90 ar  
    96   88   98 1   
    97   89   91 ar  
    98   89   99 1   
    99   90   91 ar  
   100   90  100 1   
   101   91   92 1   
   102   92  101 1   
   103  102  103 1   
   104  102  110 1   
   105  103  104 1   
   106  103  106 1   
   107  103  111 1   
   108  104  105 2   
   109  104  121 1   
   110  106  107 1   
   111  106  108 1   
   112  106  112 1   
   113  107  109 1   
   114  107  113 1   
   115  107  114 1   
   116  108  115 1   
   117  108  116 1   
   118  108  117 1   
   119  109  118 1   
   120  109  119 1   
   121  109  120 1   
   122  121  122 1   
   123  121  127 1   
   124  122  123 1   
   125  122  125 1   
   126  122  128 1   
   127  123  124 2   
   128  123  132 1   
   129  125  126 1   
   130  125  129 1   
   131  125  130 1   
   132  126  131 1   
   133  132  133 1   
   134  132  137 1   
   135  133  134 1   
   136  133  136 1   
   137  133  138 1   
   138  134  135 2   
   139  134  142 1   
   140  136  139 1   
   141  136  140 1   
   142  136  141 1   
   143  142  143 1   
   144  142  147 1   
   145  143  144 1   
   146  143  146 1   
   147  143  148 1   
   148  144  145 2   
   149  144  152 1   
   150  146  149 1   
   151  146  150 1   
   152  146  151 1   
   153  152  153 1   
   154  152  161 1   
   155  153  154 1   
   156  153  156 1   
   157  153  162 1   
   158  154  155 2   
   159  154  167 1   
   160  156  157 1   
   161  156  163 1   
   162  156  164 1   
   163  157  158 1   
   164  157  165 1   
   165  157  166 1   
   166  158  159 1   
   167  158  160 1   
   168  167  168 1   
   169  167  172 1   
   170  168  169 1   
   171  168  170 1   
   172  168  171 1   
   173  174  175 1   
   174  174  176 1   
   175  177  178 1   
   176  177  179 1   
@<TRIPOS>SUBSTRUCTURE
     1 MOL         1 TEMP              0 ****  ****    0 ROOT
