@<TRIPOS>MOLECULE
MOL
  175   173     1     0     0
SMALL
resp


@<TRIPOS>ATOM
      1 C1          0.8800    4.3300    5.3580 c3        1 MOL     -0.403318
      2 C2          0.3550    4.1950    3.9150 c         1 MOL      0.713448
      3 O1          1.0630    4.2270    2.9020 o         1 MOL     -0.561919
      4 H1          0.1870    3.8420    6.0430 hc        1 MOL      0.098080
      5 H2          1.8590    3.8560    5.4350 hc        1 MOL      0.098080
      6 H3          0.9640    5.3850    5.6170 hc        1 MOL      0.098080
      7 N1         -0.9400    3.8880    3.8530 n         1 MOL     -0.631794
      8 C3         -1.6620    3.5410    2.5910 c3        1 MOL      0.144245
      9 C4         -1.9160    4.6850    1.6370 c         1 MOL      0.610104
     10 O2         -2.0580    5.8300    2.0760 o         1 MOL     -0.595623
     11 C5         -3.0170    2.7950    2.9020 c3        1 MOL     -0.108428
     12 C6         -3.7850    2.4280    1.6290 c         1 MOL      0.519534
     13 O3         -5.0400    2.5130    1.6070 o         1 MOL     -0.615420
     14 O4         -3.1100    1.9400    0.7130 o         1 MOL     -0.615420
     15 H4         -1.4490    3.9020    4.7310 hn        1 MOL      0.322887
     16 H5         -1.1020    2.7640    2.0660 h1        1 MOL      0.051558
     17 H6         -3.6380    3.4280    3.5270 hc        1 MOL      0.010618
     18 H7         -2.7470    1.9440    3.5350 hc        1 MOL      0.010618
     19 N2         -2.0000    4.4070    0.3310 n         1 MOL     -0.409314
     20 C7         -2.4240    5.4130   -0.6350 c3        1 MOL      0.080577
     21 C8         -3.5740    5.0300   -1.5930 c         1 MOL      0.474950
     22 O5         -4.0470    5.9330   -2.2580 o         1 MOL     -0.586823
     23 C9         -1.0310    5.7110   -1.3770 c3        1 MOL     -0.106399
     24 H8         -1.7270    3.4750    0.0550 hn        1 MOL      0.235354
     25 H9         -2.5670    6.3640   -0.1110 h1        1 MOL      0.076028
     26 H10        -0.7390    4.9560   -2.1070 hc        1 MOL      0.031647
     27 H11        -0.9350    6.7080   -1.8160 hc        1 MOL      0.031647
     28 H12        -0.2530    5.7240   -0.6090 hc        1 MOL      0.031647
     29 N3         -4.0860    3.8070   -1.6700 n         1 MOL     -0.328770
     30 C10        -4.9640    3.3390   -2.7490 c3        1 MOL      0.109359
     31 C11        -6.2170    2.5800   -2.3190 c         1 MOL      0.361944
     32 O6         -7.1650    2.4370   -3.1560 o         1 MOL     -0.577289
     33 C12        -3.9960    2.4680   -3.5480 c3        1 MOL     -0.111713
     34 C13        -3.2810    1.2870   -2.8320 c         1 MOL      0.724221
     35 O7         -3.8010    0.7110   -1.9160 o         1 MOL     -0.747457
     36 O8         -2.1290    0.8800   -3.1540 o         1 MOL     -0.747457
     37 H13        -3.7300    3.0570   -1.0930 hn        1 MOL      0.266205
     38 H14        -5.2370    4.1610   -3.4040 h1        1 MOL      0.086802
     39 H15        -3.2650    3.1060   -4.0340 hc        1 MOL      0.015590
     40 H16        -4.5950    2.0550   -4.3670 hc        1 MOL      0.015590
     41 N4         -6.3600    2.2370   -1.0850 n         1 MOL     -0.138402
     42 C14        -7.5340    1.5870   -0.5300 c3        1 MOL     -0.154269
     43 C15        -7.6700    0.0550   -0.7880 c         1 MOL      0.520755
     44 O9         -8.7540   -0.4730   -0.5000 o         1 MOL     -0.607010
     45 H17        -5.5470    2.2360   -0.4820 hn        1 MOL      0.091726
     46 H18        -8.5010    1.9440   -0.8970 h1        1 MOL      0.103212
     47 H19        -7.5790    1.7630    0.5510 h1        1 MOL      0.103212
     48 N5         -6.6010   -0.5750   -1.2920 n         1 MOL     -0.337315
     49 C16        -6.5800   -1.9490   -1.7600 c3        1 MOL      0.079332
     50 C17        -6.5080   -2.9830   -0.6350 c         1 MOL      0.388976
     51 O10        -6.3420   -4.1620   -0.9400 o         1 MOL     -0.505959
     52 C18        -5.5120   -2.0880   -2.8430 c3        1 MOL     -0.265550
     53 C19        -4.0770   -2.2570   -2.3780 c         1 MOL      0.757940
     54 N6         -3.1560   -2.3270   -3.3590 n         1 MOL     -0.750905
     55 O11        -3.6820   -2.1840   -1.2020 o         1 MOL     -0.614419
     56 H20        -5.8110    0.0350   -1.4490 hn        1 MOL      0.295102
     57 H21        -7.5540   -2.1050   -2.2260 h1        1 MOL      0.107524
     58 H22        -5.3960   -1.1530   -3.3900 hc        1 MOL      0.069196
     59 H23        -5.6490   -2.9420   -3.5080 hc        1 MOL      0.069196
     60 H24        -3.3900   -2.2990   -4.3380 hn        1 MOL      0.362013
     61 H25        -2.2170   -2.1770   -3.0290 hn        1 MOL      0.362013
     62 N7         -6.5360   -2.6320    0.6420 n         1 MOL     -0.232598
     63 C20        -6.5060   -3.6890    1.6870 c3        1 MOL     -0.292556
     64 C21        -5.0720   -4.1580    2.1210 c         1 MOL      0.576595
     65 O12        -5.0290   -4.9260    3.0890 o         1 MOL     -0.567436
     66 H26        -6.5680   -1.6750    0.9850 hn        1 MOL      0.264336
     67 H27        -7.0470   -4.5250    1.2620 h1        1 MOL      0.141929
     68 H28        -6.9370   -3.3510    2.6260 h1        1 MOL      0.141929
     69 N8         -3.9500   -3.7390    1.4730 n         1 MOL     -0.394609
     70 C22        -2.6470   -4.4360    1.6280 c3        1 MOL     -0.070050
     71 C23        -1.4600   -3.4540    1.3620 c         1 MOL      0.541629
     72 O13        -1.6220   -2.5670    0.5190 o         1 MOL     -0.577247
     73 C24        -2.4200   -5.5930    0.6450 c3        1 MOL      0.510838
     74 C25        -3.5250   -6.6550    0.7360 c3        1 MOL     -0.389390
     75 O14        -2.5490   -5.0750   -0.6070 oh        1 MOL     -0.580726
     76 H29        -4.0130   -3.1440    0.6570 hn        1 MOL      0.276058
     77 H30        -2.5540   -4.8290    2.6450 h1        1 MOL      0.056357
     78 H31        -1.4240   -5.9980    0.8030 h1        1 MOL     -0.076717
     79 H32        -2.1970   -4.1850   -0.5560 ho        1 MOL      0.337508
     80 H33        -3.5250   -6.9400    1.7890 hc        1 MOL      0.094416
     81 H34        -4.4950   -6.2180    0.5080 hc        1 MOL      0.094416
     82 H35        -3.3820   -7.5470    0.1240 hc        1 MOL      0.094416
     83 N9         -0.3050   -3.6820    1.9510 n         1 MOL     -0.417189
     84 C26         0.9170   -2.8760    1.7520 c3        1 MOL      0.035609
     85 C27         1.8070   -3.1990    0.5430 c         1 MOL      0.733812
     86 O15         2.3700   -4.2710    0.4320 o         1 MOL     -0.632444
     87 C28         1.6650   -2.7760    3.1310 c3        1 MOL     -0.000718
     88 C29         0.9530   -1.7270    4.0550 c3        1 MOL      0.221714
     89 C30         3.1190   -2.4180    2.9420 c3        1 MOL     -0.130881
     90 C31         1.5880   -1.6450    5.4060 c3        1 MOL     -0.212141
     91 H36        -0.2830   -4.4750    2.5830 hn        1 MOL      0.246342
     92 H37         0.4990   -1.9320    1.4280 h1        1 MOL     -0.074714
     93 H38         1.6270   -3.7180    3.6780 hc        1 MOL      0.022204
     94 H39        -0.0810   -2.0610    4.1840 hc        1 MOL     -0.045495
     95 H40         1.1010   -0.7600    3.5690 hc        1 MOL     -0.045495
     96 H41         3.6640   -2.1280    3.8510 hc        1 MOL      0.020443
     97 H42         3.5990   -3.2650    2.4730 hc        1 MOL      0.020443
     98 H43         3.1490   -1.6600    2.1580 hc        1 MOL      0.020443
     99 H44         1.7760   -2.5920    5.9110 hc        1 MOL      0.038436
    100 H45         2.4720   -1.0220    5.3030 hc        1 MOL      0.038436
    101 H46         0.8620   -1.0480    5.9520 hc        1 MOL      0.038436
    102 N10         1.9280   -2.2160   -0.3110 n         1 MOL     -0.455516
    103 C32         2.7560   -2.1400   -1.4820 c3        1 MOL      0.269473
    104 C33         4.0820   -1.5160   -1.0940 c         1 MOL      0.141481
    105 O16         4.1020   -0.6580   -0.2300 o         1 MOL     -0.106916
    106 C34         2.0040   -1.4520   -2.6770 c3        1 MOL     -0.404327
    107 C35         0.4800   -1.7760   -2.7550 c         1 MOL      0.832899
    108 O17        -0.3230   -1.2590   -1.9640 o         1 MOL     -0.704489
    109 O18         0.0840   -2.5970   -3.5870 o         1 MOL     -0.704489
    110 H47         1.5940   -1.3350    0.0520 hn        1 MOL      0.246271
    111 H48         2.8890   -3.1560   -1.8500 h1        1 MOL      0.039489
    112 H49         2.4820   -1.5580   -3.6540 hc        1 MOL      0.094006
    113 H50         1.9940   -0.4150   -2.3320 hc        1 MOL      0.094006
    114 N11         5.1950   -1.9420   -1.7390 n         1 MOL     -0.476686
    115 C36         6.5400   -1.5450   -1.2630 c3        1 MOL      0.162088
    116 C37         6.7490    0.0460   -1.0400 c         1 MOL      0.512917
    117 O19         7.4330    0.4220   -0.1190 o         1 MOL     -0.517747
    118 C38         7.5680   -2.1000   -2.2440 c3        1 MOL     -0.286181
    119 C39         8.9740   -1.7530   -1.8650 ca        1 MOL      0.282043
    120 C40         9.6000   -2.3150   -0.7720 ca        1 MOL     -0.296343
    121 C41         9.7950   -0.9660   -2.7160 ca        1 MOL     -0.296343
    122 C42        10.9250   -2.0690   -0.4270 ca        1 MOL      0.007084
    123 C43        11.1790   -0.7310   -2.3470 ca        1 MOL      0.007084
    124 C44        11.7430   -1.3380   -1.2020 ca        1 MOL     -0.220791
    125 H51         5.1270   -2.6680   -2.4270 hn        1 MOL      0.323847
    126 H52         6.6880   -1.9620   -0.2700 h1        1 MOL      0.077499
    127 H53         7.2890   -1.6470   -3.1900 hc        1 MOL      0.088263
    128 H54         7.5360   -3.1880   -2.3500 hc        1 MOL      0.088263
    129 H55         9.0080   -2.8070   -0.0140 ha        1 MOL      0.131537
    130 H56         9.3990   -0.6130   -3.6590 ha        1 MOL      0.131537
    131 H57        11.3590   -2.5540    0.4400 ha        1 MOL      0.081438
    132 H58        11.8410   -0.1210   -2.9400 ha        1 MOL      0.081438
    133 H59        12.7790   -1.1980   -0.9060 ha        1 MOL      0.124943
    134 N12         6.1060    0.8870   -1.9120 n         1 MOL     -0.274737
    135 C45         6.1810    2.3710   -1.7290 c3        1 MOL      0.038911
    136 C46         5.5960    2.8550   -0.3640 c         1 MOL      0.434248
    137 O20         5.8630    3.9100    0.0470 o         1 MOL     -0.527813
    138 C47         5.5410    2.9180   -2.9580 c3        1 MOL     -0.125214
    139 C48         4.4800    1.8530   -3.3410 c3        1 MOL     -0.041382
    140 C49         5.3250    0.6560   -3.1420 c3        1 MOL      0.019553
    141 H60         7.2440    2.6170   -1.6780 h1        1 MOL      0.059904
    142 H61         5.2080    3.9430   -2.7880 hc        1 MOL      0.053087
    143 H62         6.2950    2.8910   -3.7500 hc        1 MOL      0.053087
    144 H63         3.6760    1.9240   -2.5960 hc        1 MOL      0.048754
    145 H64         4.1380    1.9100   -4.3760 hc        1 MOL      0.048754
    146 H65         4.6440   -0.1960   -3.1690 h1        1 MOL      0.038740
    147 H66         5.8760    0.5390   -4.0750 h1        1 MOL      0.038740
    148 N13         4.8180    1.9780    0.2780 n         1 MOL      0.002029
    149 C50         4.1470    2.1840    1.5960 c3        1 MOL     -0.311294
    150 C51         4.9680    1.4900    2.6810 c         1 MOL      0.483761
    151 O21         5.0020    1.8920    3.8720 o         1 MOL     -0.539189
    152 C52         2.7100    1.6780    1.6640 c3        1 MOL      0.122138
    153 C53         1.8400    2.2330    0.5450 c3        1 MOL     -0.173217
    154 C54         0.5460    1.4090    0.3080 c         1 MOL      0.424876
    155 O22         0.3090    0.2870    0.8440 o         1 MOL     -0.626085
    156 O23        -0.2740    1.7980   -0.5730 o         1 MOL     -0.626085
    157 H67         4.5250    1.1390   -0.2000 hn        1 MOL      0.014916
    158 H68         4.0650    3.2650    1.6830 h1        1 MOL      0.145300
    159 H69         2.3470    1.9400    2.6530 hc        1 MOL      0.048991
    160 H70         2.7010    0.5910    1.6880 hc        1 MOL      0.048991
    161 H71         2.4480    2.2990   -0.3680 hc        1 MOL      0.094369
    162 H72         1.5500    3.2720    0.7030 hc        1 MOL      0.094369
    163 N14         5.4980    0.2690    2.3390 n         1 MOL     -0.162866
    164 C55         6.3900   -0.4400    3.2230 c3        1 MOL     -0.145407
    165 H73         5.8150   -1.1260    3.8440 h1        1 MOL      0.064580
    166 H74         7.1130   -1.0030    2.6340 h1        1 MOL      0.064580
    167 H75         6.9140    0.2730    3.8590 h1        1 MOL      0.064580
    168 H76         5.3690   -0.1540    1.4340 hn        1 MOL      0.124870
    169 Ca1        -1.9230   -0.1970   -0.3710 Ca        1 MOL      1.778473
    170 O24        -3.7860   -0.5610    1.4810 oh        1 MOL     -0.844975
    171 H77        -4.5010   -0.0280    1.8310 ho        1 MOL      0.412622
    172 H78        -3.1090   -0.5140    2.1500 ho        1 MOL      0.412622
    173 O25        -1.5900   -0.1140    2.8320 oh        1 MOL     -0.844975
    174 H79        -0.6990    0.0800    2.5450 ho        1 MOL      0.412622
    175 H80        -1.5700    0.0050    3.7830 ho        1 MOL      0.412622
@<TRIPOS>BOND
     1    1    2 1   
     2    1    4 1   
     3    1    5 1   
     4    1    6 1   
     5    2    3 2   
     6    2    7 1   
     7    7    8 1   
     8    7   15 1   
     9    8    9 1   
    10    8   11 1   
    11    8   16 1   
    12    9   10 2   
    13    9   19 1   
    14   11   12 1   
    15   11   17 1   
    16   11   18 1   
    17   12   13 1   
    18   12   14 1   
    19   19   20 1   
    20   19   24 1   
    21   20   21 1   
    22   20   23 1   
    23   20   25 1   
    24   21   22 2   
    25   21   29 1   
    26   23   26 1   
    27   23   27 1   
    28   23   28 1   
    29   29   30 1   
    30   29   37 1   
    31   30   31 1   
    32   30   33 1   
    33   30   38 1   
    34   31   32 2   
    35   31   41 1   
    36   33   34 1   
    37   33   39 1   
    38   33   40 1   
    39   34   35 1   
    40   34   36 1   
    41   41   42 1   
    42   41   45 1   
    43   42   43 1   
    44   42   46 1   
    45   42   47 1   
    46   43   44 2   
    47   43   48 1   
    48   48   49 1   
    49   48   56 1   
    50   49   50 1   
    51   49   52 1   
    52   49   57 1   
    53   50   51 2   
    54   50   62 1   
    55   52   53 1   
    56   52   58 1   
    57   52   59 1   
    58   53   54 1   
    59   53   55 2   
    60   54   60 1   
    61   54   61 1   
    62   62   63 1   
    63   62   66 1   
    64   63   64 1   
    65   63   67 1   
    66   63   68 1   
    67   64   65 2   
    68   64   69 1   
    69   69   70 1   
    70   69   76 1   
    71   70   71 1   
    72   70   73 1   
    73   70   77 1   
    74   71   72 2   
    75   71   83 1   
    76   73   74 1   
    77   73   75 1   
    78   73   78 1   
    79   74   80 1   
    80   74   81 1   
    81   74   82 1   
    82   75   79 1   
    83   83   84 1   
    84   83   91 1   
    85   84   85 1   
    86   84   87 1   
    87   84   92 1   
    88   85   86 2   
    89   85  102 1   
    90   87   88 1   
    91   87   89 1   
    92   87   93 1   
    93   88   90 1   
    94   88   94 1   
    95   88   95 1   
    96   89   96 1   
    97   89   97 1   
    98   89   98 1   
    99   90   99 1   
   100   90  100 1   
   101   90  101 1   
   102  102  103 1   
   103  102  110 1   
   104  103  104 1   
   105  103  106 1   
   106  103  111 1   
   107  104  105 2   
   108  104  114 1   
   109  106  107 1   
   110  106  112 1   
   111  106  113 1   
   112  107  108 1   
   113  107  109 1   
   114  114  115 1   
   115  114  125 1   
   116  115  116 1   
   117  115  118 1   
   118  115  126 1   
   119  116  117 2   
   120  116  134 1   
   121  118  119 1   
   122  118  127 1   
   123  118  128 1   
   124  119  120 ar  
   125  119  121 ar  
   126  120  122 ar  
   127  120  129 1   
   128  121  123 ar  
   129  121  130 1   
   130  122  124 ar  
   131  122  131 1   
   132  123  124 ar  
   133  123  132 1   
   134  124  133 1   
   135  134  135 1   
   136  134  140 1   
   137  135  136 1   
   138  135  138 1   
   139  135  141 1   
   140  136  137 2   
   141  136  148 1   
   142  138  139 1   
   143  138  142 1   
   144  138  143 1   
   145  139  140 1   
   146  139  144 1   
   147  139  145 1   
   148  140  146 1   
   149  140  147 1   
   150  148  149 1   
   151  148  157 1   
   152  149  150 1   
   153  149  152 1   
   154  149  158 1   
   155  150  151 2   
   156  150  163 1   
   157  152  153 1   
   158  152  159 1   
   159  152  160 1   
   160  153  154 1   
   161  153  161 1   
   162  153  162 1   
   163  154  155 1   
   164  154  156 1   
   165  163  164 1   
   166  163  168 1   
   167  164  165 1   
   168  164  166 1   
   169  164  167 1   
   170  170  171 1   
   171  170  172 1   
   172  173  174 1   
   173  173  175 1   
@<TRIPOS>SUBSTRUCTURE
     1 MOL         1 TEMP              0 ****  ****    0 ROOT
