@<TRIPOS>MOLECULE
MOL
  179   176     1     0     0
SMALL
resp


@<TRIPOS>ATOM
      1 C1          2.8290    2.3530    4.7080 c3        1 MOL     -0.233123
      2 C2          2.0700    2.0830    3.4180 c         1 MOL      0.678793
      3 O1          2.5650    1.5850    2.4130 o         1 MOL     -0.565927
      4 H1          3.1150    3.4050    4.7480 hc        1 MOL      0.054969
      5 H2          2.1930    2.1170    5.5610 hc        1 MOL      0.054969
      6 H3          3.7250    1.7330    4.7400 hc        1 MOL      0.054969
      7 N1          0.8330    2.4460    3.5370 n         1 MOL     -0.685600
      8 C3         -0.2240    2.3190    2.4920 c3        1 MOL      0.356307
      9 C4         -0.2400    3.5730    1.5970 c         1 MOL      0.423119
     10 O2         -1.1240    4.4160    1.5660 o         1 MOL     -0.480957
     11 C5         -1.6040    1.9340    3.0060 c3        1 MOL     -0.489630
     12 C6         -2.5400    1.6610    1.8520 c         1 MOL      0.759377
     13 O3         -3.6880    1.4300    2.2140 o         1 MOL     -0.635918
     14 O4         -2.1950    1.6630    0.6190 o         1 MOL     -0.635918
     15 H4          0.5260    2.6870    4.4590 hn        1 MOL      0.358586
     16 H5          0.0500    1.4960    1.8310 h1        1 MOL     -0.061228
     17 H6         -1.9440    2.7620    3.6170 hc        1 MOL      0.119444
     18 H7         -1.5970    0.9710    3.5160 hc        1 MOL      0.119444
     19 N2          0.8410    3.7030    0.8330 n         1 MOL     -0.449312
     20 C7          1.1520    4.8780    0.0580 c3        1 MOL     -0.018978
     21 C8          0.1950    5.1920   -1.2000 c         1 MOL      0.479823
     22 O5          0.2420    6.3860   -1.6290 o         1 MOL     -0.562679
     23 C9          2.5910    4.8720   -0.4000 c3        1 MOL     -0.173831
     24 C10         3.4020    5.0180    0.8380 c3        1 MOL      0.202162
     25 C11         4.8450    4.9190    0.6090 c3        1 MOL     -0.003657
     26 C12         5.5840    5.0210    1.9500 c3        1 MOL      0.035885
     27 N3          5.4480    6.2770    2.6220 n4        1 MOL     -0.356617
     28 H8          1.6000    3.0780    1.0340 hn        1 MOL      0.452727
     29 H9          1.0640    5.6650    0.8120 h1        1 MOL      0.075489
     30 H10         2.7760    5.8220   -0.8970 hc        1 MOL      0.081686
     31 H11         2.8250    3.9680   -0.9620 hc        1 MOL      0.081686
     32 H12         3.0940    4.3520    1.6480 hc        1 MOL     -0.075396
     33 H13         3.1930    6.0230    1.2130 hc        1 MOL     -0.075396
     34 H14         5.1730    5.7100   -0.0640 hc        1 MOL      0.024556
     35 H15         5.0740    3.9850    0.1000 hc        1 MOL      0.024556
     36 H16         6.6120    4.7680    1.7240 hx        1 MOL      0.081032
     37 H17         5.1920    4.2260    2.5840 hx        1 MOL      0.081032
     38 H18         6.1050    6.4710    3.3630 hn        1 MOL      0.325797
     39 H19         5.5140    6.9950    1.9170 hn        1 MOL      0.325797
     40 H20         4.5490    6.3040    3.0690 hn        1 MOL      0.325797
     41 N4         -0.5630    4.2490   -1.8080 n         1 MOL     -0.363245
     42 C13        -1.7190    4.6610   -2.6850 c3        1 MOL      0.220323
     43 C14        -3.0910    4.8200   -1.9850 c         1 MOL      0.310749
     44 O6         -4.0080    5.1160   -2.7310 o         1 MOL     -0.499693
     45 C15        -1.9610    3.7030   -3.9110 c3        1 MOL     -0.295372
     46 C16        -2.2570    2.2480   -3.5810 c         1 MOL      0.782406
     47 O7         -2.1970    1.8440   -2.4100 o         1 MOL     -0.733758
     48 O8         -2.3780    1.3400   -4.4770 o         1 MOL     -0.733758
     49 H21        -0.6580    3.3440   -1.3770 hn        1 MOL      0.193142
     50 H22        -1.5360    5.6190   -3.1540 h1        1 MOL      0.081187
     51 H23        -1.0290    3.7360   -4.4670 hc        1 MOL      0.075830
     52 H24        -2.7090    4.1490   -4.5700 hc        1 MOL      0.075830
     53 N5         -3.1780    4.7480   -0.6680 n         1 MOL     -0.207045
     54 C17        -4.4500    4.7530    0.1810 c3        1 MOL      0.001918
     55 C18        -5.4410    3.6650   -0.1450 c         1 MOL      0.454208
     56 O9         -6.6170    3.9690   -0.0650 o         1 MOL     -0.554314
     57 H25        -2.3490    4.6240   -0.1040 hn        1 MOL      0.157678
     58 H26        -4.9370    5.7260    0.1970 h1        1 MOL      0.052936
     59 H27        -4.0500    4.4670    1.1510 h1        1 MOL      0.052936
     60 N6         -5.0550    2.5110   -0.6830 n         1 MOL     -0.062271
     61 C19        -5.9500    1.5410   -1.2260 c3        1 MOL     -0.332810
     62 C20        -6.5190    0.5150   -0.2480 c         1 MOL      0.286506
     63 O10        -7.5260   -0.1630   -0.6610 o         1 MOL     -0.495681
     64 C21        -5.3610    0.7620   -2.4440 c3        1 MOL     -0.054600
     65 C22        -4.4110   -0.3940   -2.1510 c         1 MOL      0.550289
     66 N7         -4.0980   -1.1850   -3.1700 n         1 MOL     -0.700066
     67 O11        -3.8810   -0.5250   -1.0900 o         1 MOL     -0.394484
     68 H28        -4.0800    2.2580   -0.6780 hn        1 MOL      0.250929
     69 H29        -6.8600    2.0540   -1.5220 h1        1 MOL      0.195642
     70 H30        -4.8650    1.5150   -3.0610 hc        1 MOL      0.065838
     71 H31        -6.2150    0.3420   -2.9900 hc        1 MOL      0.065838
     72 H32        -4.5890   -0.9880   -4.0260 hn        1 MOL      0.333539
     73 H33        -3.6790   -2.0890   -2.9730 hn        1 MOL      0.333539
     74 N8         -6.1080    0.4690    1.0030 n         1 MOL      0.040222
     75 C23        -6.5660   -0.4180    2.0610 c3        1 MOL     -0.404398
     76 C24        -5.6850   -1.6620    2.2340 c         1 MOL      0.785713
     77 O12        -6.1160   -2.5960    2.9100 o         1 MOL     -0.600672
     78 H34        -5.3680    1.1240    1.2540 hn        1 MOL      0.127762
     79 H35        -7.5690   -0.7770    1.8270 h1        1 MOL      0.145242
     80 H36        -6.5260    0.0940    3.0190 h1        1 MOL      0.145242
     81 N9         -4.4840   -1.6140    1.7110 n         1 MOL     -0.587537
     82 C25        -3.5270   -2.7240    1.7870 c3        1 MOL      0.248871
     83 C26        -2.0640   -2.3070    1.6950 c         1 MOL      0.532296
     84 O13        -1.7530   -1.2360    1.1890 o         1 MOL     -0.591320
     85 C27        -3.6750   -3.6730    0.5790 c3        1 MOL      0.010834
     86 C28        -5.1780   -4.0720    0.2980 ca        1 MOL      0.048758
     87 C29        -5.8970   -3.6570   -0.8560 ca        1 MOL     -0.196035
     88 C30        -5.6650   -5.0960    1.1990 ca        1 MOL     -0.196035
     89 C31        -7.1880   -4.1280   -1.0540 ca        1 MOL     -0.288492
     90 C32        -7.0220   -5.5350    0.9670 ca        1 MOL     -0.288492
     91 C33        -7.7880   -5.0200   -0.1280 ca        1 MOL      0.388176
     92 O14        -9.0810   -5.3520   -0.3120 oh        1 MOL     -0.492755
     93 H37        -4.2670   -0.7480    1.2460 hn        1 MOL      0.271520
     94 H38        -3.7230   -3.2540    2.7140 h1        1 MOL      0.004386
     95 H39        -3.1490   -4.6070    0.7520 hc        1 MOL     -0.009487
     96 H40        -3.4030   -3.1900   -0.3600 hc        1 MOL     -0.009487
     97 H41        -5.5340   -3.0510   -1.6760 ha        1 MOL      0.151700
     98 H42        -5.0490   -5.3740    2.0400 ha        1 MOL      0.151700
     99 H43        -7.6900   -3.7540   -1.9360 ha        1 MOL      0.157255
    100 H44        -7.4780   -6.1770    1.7030 ha        1 MOL      0.157255
    101 H45        -9.4140   -5.8820    0.4160 ho        1 MOL      0.364253
    102 N10        -1.1240   -3.1830    2.1110 n         1 MOL     -0.617004
    103 C34         0.3610   -3.0220    1.8750 c3        1 MOL      0.132582
    104 C35         1.0760   -4.0200    0.9560 c         1 MOL      0.575071
    105 O15         1.0360   -5.1650    1.2700 o         1 MOL     -0.581176
    106 C36         1.1260   -2.6720    3.2330 c3        1 MOL      0.082766
    107 C37         0.4370   -1.5870    4.1010 c3        1 MOL      0.075161
    108 C38         2.5020   -2.1170    2.8650 c3        1 MOL     -0.264870
    109 C39         0.7660   -1.7920    5.5660 c3        1 MOL     -0.400451
    110 H46        -1.4640   -4.0520    2.4820 hn        1 MOL      0.328552
    111 H47         0.4300   -2.1110    1.2880 h1        1 MOL     -0.037270
    112 H48         1.2790   -3.5990    3.7860 hc        1 MOL      0.025716
    113 H49        -0.6560   -1.5980    4.0860 hc        1 MOL      0.064070
    114 H50         0.7420   -0.6140    3.7300 hc        1 MOL      0.064070
    115 H51         3.1490   -2.9100    2.4880 hc        1 MOL      0.050774
    116 H52         2.4030   -1.5360    1.9440 hc        1 MOL      0.050774
    117 H53         3.0270   -1.5750    3.6530 hc        1 MOL      0.050774
    118 H54         0.3840   -2.7370    5.9610 hc        1 MOL      0.095027
    119 H55         1.8390   -1.8450    5.7430 hc        1 MOL      0.095027
    120 H56         0.3340   -0.9760    6.1460 hc        1 MOL      0.095027
    121 N11         1.8230   -3.4610    0.0240 n         1 MOL     -0.200356
    122 C40         2.7570   -4.0930   -0.9280 c3        1 MOL     -0.030384
    123 C41         4.3070   -3.7960   -0.6180 c         1 MOL      0.400838
    124 O16         4.6240   -2.7890   -0.0300 o         1 MOL     -0.343534
    125 C42         2.2700   -3.7670   -2.3600 c3        1 MOL      0.136150
    126 O17         1.0030   -4.2890   -2.6830 oh        1 MOL     -0.583303
    127 H57         1.8020   -2.4550    0.0870 hn        1 MOL      0.295970
    128 H58         2.5850   -5.1570   -0.7450 h1        1 MOL      0.056485
    129 H59         3.0300   -4.1490   -3.0510 h1        1 MOL      0.019365
    130 H60         2.1200   -2.6910   -2.4690 h1        1 MOL      0.019365
    131 H61         1.1360   -5.1670   -3.0370 ho        1 MOL      0.421302
    132 N12         5.1960   -4.6680   -1.1640 n         1 MOL     -0.456411
    133 C43         6.6250   -4.6980   -0.8040 c3        1 MOL      0.078521
    134 C44         7.3020   -3.3800   -1.1130 c         1 MOL      0.512377
    135 O18         8.0280   -2.8940   -0.2840 o         1 MOL     -0.503618
    136 C45         7.2300   -5.9330   -1.5210 c3        1 MOL     -0.291756
    137 H62         4.8230   -5.4040   -1.7460 hn        1 MOL      0.299762
    138 H63         6.7700   -4.8510    0.2630 h1        1 MOL      0.098734
    139 H64         7.5130   -5.7100   -2.5450 hc        1 MOL      0.095099
    140 H65         8.1990   -6.1800   -1.0780 hc        1 MOL      0.095099
    141 H66         6.6780   -6.8670   -1.5260 hc        1 MOL      0.095099
    142 N13         6.9680   -2.7330   -2.2770 n         1 MOL     -0.351717
    143 C46         7.6110   -1.4790   -2.6800 c3        1 MOL      0.027485
    144 C47         7.1690   -0.2550   -1.9520 c         1 MOL      0.459953
    145 O19         7.9100    0.7070   -1.8110 o         1 MOL     -0.517545
    146 C48         7.2290   -1.2760   -4.1540 c3        1 MOL     -0.324532
    147 H67         6.4360   -3.2680   -2.9570 hn        1 MOL      0.245466
    148 H68         8.6880   -1.6070   -2.5260 h1        1 MOL      0.114028
    149 H69         6.2030   -1.4310   -4.4650 hc        1 MOL      0.099742
    150 H70         7.6240   -0.3360   -4.5480 hc        1 MOL      0.099742
    151 H71         7.7030   -2.0910   -4.7030 hc        1 MOL      0.099742
    152 N14         6.0120   -0.3670   -1.2920 n         1 MOL     -0.175179
    153 C49         5.4960    0.6130   -0.3640 c3        1 MOL     -0.168552
    154 C50         6.2750    0.5860    0.9320 c         1 MOL      0.570035
    155 O20         6.7000    1.6670    1.4190 o         1 MOL     -0.603121
    156 C51         4.0000    0.5790   -0.1330 c3        1 MOL      0.380628
    157 C52         3.1860    0.7590   -1.4130 c3        1 MOL     -0.070793
    158 C53         1.6830    0.5750   -1.2160 c         1 MOL      0.629001
    159 O21         1.2240   -0.5810   -1.0480 o         1 MOL     -0.676906
    160 O22         0.8880    1.4950   -1.0430 o         1 MOL     -0.676906
    161 H72         5.6240   -1.2880   -1.1820 hn        1 MOL      0.096512
    162 H73         5.7340    1.5920   -0.7850 h1        1 MOL      0.102778
    163 H74         3.8470    1.4190    0.5380 hc        1 MOL     -0.130229
    164 H75         3.6200   -0.2660    0.4490 hc        1 MOL     -0.130229
    165 H76         3.6150    0.0120   -2.0850 hc        1 MOL     -0.025026
    166 H77         3.4790    1.7300   -1.8140 hc        1 MOL     -0.025026
    167 N15         6.4630   -0.6480    1.4290 n         1 MOL     -0.211216
    168 C54         7.2310   -0.9400    2.6710 c3        1 MOL     -0.233873
    169 H78         7.6390   -1.9490    2.6150 h1        1 MOL      0.110460
    170 H79         8.0470   -0.2230    2.7710 h1        1 MOL      0.110460
    171 H80         6.5710   -0.8620    3.5340 h1        1 MOL      0.110460
    172 H81         6.2110   -1.4000    0.8150 hn        1 MOL      0.184250
    173 Ca1        -1.3030   -0.0670   -1.0420 Ca        1 MOL      1.668098
    174 O23        -0.5990   -0.4350   -3.6440 oh        1 MOL     -0.896771
    175 H82         0.1820   -0.6190   -4.1660 ho        1 MOL      0.412912
    176 H83        -1.1310    0.1300   -4.2040 ho        1 MOL      0.412912
    177 O24        -0.9320   -2.8250   -1.5970 oh        1 MOL     -0.896771
    178 H84        -1.6540   -3.1430   -2.1330 ho        1 MOL      0.412912
    179 H85        -0.1530   -3.0780   -2.0870 ho        1 MOL      0.412912
@<TRIPOS>BOND
     1    1    2 1   
     2    1    4 1   
     3    1    5 1   
     4    1    6 1   
     5    2    3 2   
     6    2    7 1   
     7    7    8 1   
     8    7   15 1   
     9    8    9 1   
    10    8   11 1   
    11    8   16 1   
    12    9   10 2   
    13    9   19 1   
    14   11   12 1   
    15   11   17 1   
    16   11   18 1   
    17   12   13 1   
    18   12   14 1   
    19   19   20 1   
    20   19   28 1   
    21   20   21 1   
    22   20   23 1   
    23   20   29 1   
    24   21   22 2   
    25   21   41 1   
    26   23   24 1   
    27   23   30 1   
    28   23   31 1   
    29   24   25 1   
    30   24   32 1   
    31   24   33 1   
    32   25   26 1   
    33   25   34 1   
    34   25   35 1   
    35   26   27 1   
    36   26   36 1   
    37   26   37 1   
    38   27   38 1   
    39   27   39 1   
    40   27   40 1   
    41   41   42 1   
    42   41   49 1   
    43   42   43 1   
    44   42   45 1   
    45   42   50 1   
    46   43   44 2   
    47   43   53 1   
    48   45   46 1   
    49   45   51 1   
    50   45   52 1   
    51   46   47 1   
    52   46   48 1   
    53   53   54 1   
    54   53   57 1   
    55   54   55 1   
    56   54   58 1   
    57   54   59 1   
    58   55   56 2   
    59   55   60 1   
    60   60   61 1   
    61   60   68 1   
    62   61   62 1   
    63   61   64 1   
    64   61   69 1   
    65   62   63 2   
    66   62   74 1   
    67   64   65 1   
    68   64   70 1   
    69   64   71 1   
    70   65   66 1   
    71   65   67 2   
    72   66   72 1   
    73   66   73 1   
    74   74   75 1   
    75   74   78 1   
    76   75   76 1   
    77   75   79 1   
    78   75   80 1   
    79   76   77 2   
    80   76   81 1   
    81   81   82 1   
    82   81   93 1   
    83   82   83 1   
    84   82   85 1   
    85   82   94 1   
    86   83   84 2   
    87   83  102 1   
    88   85   86 1   
    89   85   95 1   
    90   85   96 1   
    91   86   87 ar  
    92   86   88 ar  
    93   87   89 ar  
    94   87   97 1   
    95   88   90 ar  
    96   88   98 1   
    97   89   91 ar  
    98   89   99 1   
    99   90   91 ar  
   100   90  100 1   
   101   91   92 1   
   102   92  101 1   
   103  102  103 1   
   104  102  110 1   
   105  103  104 1   
   106  103  106 1   
   107  103  111 1   
   108  104  105 2   
   109  104  121 1   
   110  106  107 1   
   111  106  108 1   
   112  106  112 1   
   113  107  109 1   
   114  107  113 1   
   115  107  114 1   
   116  108  115 1   
   117  108  116 1   
   118  108  117 1   
   119  109  118 1   
   120  109  119 1   
   121  109  120 1   
   122  121  122 1   
   123  121  127 1   
   124  122  123 1   
   125  122  125 1   
   126  122  128 1   
   127  123  124 2   
   128  123  132 1   
   129  125  126 1   
   130  125  129 1   
   131  125  130 1   
   132  126  131 1   
   133  132  133 1   
   134  132  137 1   
   135  133  134 1   
   136  133  136 1   
   137  133  138 1   
   138  134  135 2   
   139  134  142 1   
   140  136  139 1   
   141  136  140 1   
   142  136  141 1   
   143  142  143 1   
   144  142  147 1   
   145  143  144 1   
   146  143  146 1   
   147  143  148 1   
   148  144  145 2   
   149  144  152 1   
   150  146  149 1   
   151  146  150 1   
   152  146  151 1   
   153  152  153 1   
   154  152  161 1   
   155  153  154 1   
   156  153  156 1   
   157  153  162 1   
   158  154  155 2   
   159  154  167 1   
   160  156  157 1   
   161  156  163 1   
   162  156  164 1   
   163  157  158 1   
   164  157  165 1   
   165  157  166 1   
   166  158  159 1   
   167  158  160 1   
   168  167  168 1   
   169  167  172 1   
   170  168  169 1   
   171  168  170 1   
   172  168  171 1   
   173  174  175 1   
   174  174  176 1   
   175  177  178 1   
   176  177  179 1   
@<TRIPOS>SUBSTRUCTURE
     1 MOL         1 TEMP              0 ****  ****    0 ROOT
