@<TRIPOS>MOLECULE
MOL
  176   174     1     0     0
SMALL
resp


@<TRIPOS>ATOM
      1 C1         -0.1330    3.1100    6.6740 c3        1 MOL     -0.292245
      2 C2         -0.3660    2.4890    5.2650 c         1 MOL      0.693290
      3 O1          0.6060    1.9950    4.6990 o         1 MOL     -0.600023
      4 H1          0.5460    2.4750    7.2430 hc        1 MOL      0.079515
      5 H2          0.3050    4.1030    6.5670 hc        1 MOL      0.079515
      6 H3         -1.0850    3.1870    7.2000 hc        1 MOL      0.079515
      7 N1         -1.4870    2.5940    4.5720 n         1 MOL     -0.614133
      8 C3         -1.6190    2.3450    3.0980 c3        1 MOL      0.174993
      9 C4         -1.6150    3.7020    2.3230 c         1 MOL      0.615037
     10 O2         -2.4440    4.5800    2.5930 o         1 MOL     -0.559850
     11 C5         -2.8710    1.4420    2.8750 c3        1 MOL     -0.399189
     12 C6         -3.1300    1.0710    1.3740 c         1 MOL      0.970654
     13 O3         -3.7410    0.0300    1.0920 o         1 MOL     -0.815549
     14 O4         -2.6480    1.7400    0.4490 o         1 MOL     -0.815549
     15 H4         -2.2900    2.9720    5.0420 hn        1 MOL      0.322752
     16 H5         -0.7210    1.8320    2.7610 h1        1 MOL      0.079188
     17 H6         -3.7110    1.9730    3.3180 hc        1 MOL      0.098885
     18 H7         -2.5920    0.5380    3.4080 hc        1 MOL      0.098885
     19 N2         -0.6770    3.8330    1.3670 n         1 MOL     -0.421877
     20 C7         -0.3390    5.0670    0.6200 c3        1 MOL     -0.064653
     21 C8         -1.4950    5.4660   -0.3420 c         1 MOL      0.572119
     22 O5         -1.6280    6.6220   -0.7040 o         1 MOL     -0.603332
     23 C9          0.9280    4.8340   -0.1960 c3        1 MOL      0.095944
     24 C10         1.5890    6.0770   -0.8250 c3        1 MOL     -0.298980
     25 C11         2.8740    5.6090   -1.3850 c3        1 MOL      0.280709
     26 C12         3.5650    6.8160   -2.2120 c3        1 MOL      0.031001
     27 N3          4.7500    6.4670   -2.9390 n4        1 MOL     -0.495973
     28 H8         -0.1970    2.9980    1.0850 hn        1 MOL      0.235955
     29 H9         -0.2020    5.9000    1.3200 h1        1 MOL      0.103033
     30 H10         0.7000    4.0100   -0.8790 hc        1 MOL      0.059724
     31 H11         1.6840    4.3850    0.4470 hc        1 MOL      0.059724
     32 H12         1.8050    6.7780   -0.0190 hc        1 MOL      0.078840
     33 H13         0.9020    6.5190   -1.5530 hc        1 MOL      0.078840
     34 H14         2.6650    4.8070   -2.0890 hc        1 MOL     -0.025357
     35 H15         3.6230    5.3060   -0.6500 hc        1 MOL     -0.025357
     36 H16         3.7190    7.5200   -1.3890 hx        1 MOL      0.060766
     37 H17         2.8160    7.2520   -2.8710 hx        1 MOL      0.060766
     38 H18         4.4710    5.8320   -3.6680 hn        1 MOL      0.369346
     39 H19         5.1710    7.3280   -3.2450 hn        1 MOL      0.369346
     40 H20         5.5120    6.1040   -2.3720 hn        1 MOL      0.369346
     41 N4         -2.2960    4.5040   -0.7450 n         1 MOL     -0.006542
     42 C13        -3.3850    4.7080   -1.6560 c3        1 MOL      0.031213
     43 C14        -4.6910    4.1000   -1.2180 c         1 MOL      0.416936
     44 O6         -5.6760    4.3800   -1.9040 o         1 MOL     -0.541159
     45 C15        -3.0550    3.9320   -2.9050 c3        1 MOL     -0.099602
     46 C16        -2.5900    2.4930   -2.6500 c         1 MOL      0.808039
     47 O7         -3.3620    1.5140   -2.6390 o         1 MOL     -0.727398
     48 O8         -1.4160    2.2660   -2.3960 o         1 MOL     -0.727398
     49 H21        -1.9610    3.5830   -0.5080 hn        1 MOL     -0.378159
     50 H22        -3.6100    5.7580   -1.8480 h1        1 MOL      0.113613
     51 H23        -2.2540    4.4620   -3.4290 hc        1 MOL      0.020396
     52 H24        -3.8300    3.9520   -3.6700 hc        1 MOL      0.020396
     53 N5         -4.8040    3.3680   -0.1100 n         1 MOL     -0.230806
     54 C17        -6.1960    3.0130    0.3710 c3        1 MOL     -0.231417
     55 C18        -6.7200    1.6000   -0.1530 c         1 MOL      0.477144
     56 O9         -7.8390    1.2520    0.2880 o         1 MOL     -0.540792
     57 H25        -3.9740    3.1460    0.4090 hn        1 MOL      0.262902
     58 H26        -6.8650    3.8010    0.0220 h1        1 MOL      0.132833
     59 H27        -6.1720    2.9240    1.4610 h1        1 MOL      0.132833
     60 N6         -5.8840    0.8510   -0.9260 n         1 MOL     -0.164245
     61 C19        -6.5130   -0.3590   -1.5850 c3        1 MOL     -0.079560
     62 C20        -6.7700   -1.5090   -0.5520 c         1 MOL      0.364295
     63 O10        -7.5640   -2.4650   -0.8390 o         1 MOL     -0.546506
     64 C21        -5.6680   -0.9030   -2.8000 c3        1 MOL     -0.062536
     65 C22        -4.5880   -1.8840   -2.3750 c         1 MOL      0.508709
     66 N7         -4.5020   -3.1050   -2.9220 n         1 MOL     -0.670388
     67 O11        -3.6370   -1.5180   -1.6800 o         1 MOL     -0.665351
     68 H28        -5.0880    1.2760   -1.3890 hn        1 MOL      0.200893
     69 H29        -7.4680   -0.1260   -2.0570 h1        1 MOL      0.115124
     70 H30        -5.3500   -0.0400   -3.3870 hc        1 MOL      0.065253
     71 H31        -6.3560   -1.3200   -3.5360 hc        1 MOL      0.065253
     72 H32        -5.2360   -3.4380   -3.5400 hn        1 MOL      0.350259
     73 H33        -3.6890   -3.6620   -2.7150 hn        1 MOL      0.350259
     74 N8         -6.1740   -1.4050    0.6320 n         1 MOL     -0.065464
     75 C23        -6.3170   -2.3460    1.7070 c3        1 MOL     -0.180933
     76 C24        -5.1450   -3.2690    1.8650 c         1 MOL      0.485214
     77 O12        -5.1960   -4.2870    2.5760 o         1 MOL     -0.563549
     78 H34        -5.5230   -0.6370    0.6340 hn        1 MOL      0.202953
     79 H35        -7.2150   -2.9640    1.6280 h1        1 MOL      0.112550
     80 H36        -6.4570   -1.7360    2.5970 h1        1 MOL      0.112550
     81 N9         -3.9470   -3.0160    1.2940 n         1 MOL     -0.130945
     82 C25        -2.6900   -3.7000    1.6480 c3        1 MOL     -0.048603
     83 C26        -1.4220   -2.8530    1.3950 c         1 MOL      0.579773
     84 O13        -1.3640   -1.9110    0.5780 o         1 MOL     -0.603918
     85 C27        -2.6130   -5.0190    0.9300 c3        1 MOL     -0.251209
     86 C28        -2.4770   -4.9770   -0.6090 ca        1 MOL      0.003883
     87 C29        -1.2980   -4.4320   -1.2730 ca        1 MOL     -0.070216
     88 C30        -3.4030   -5.6830   -1.3300 ca        1 MOL     -0.070216
     89 C31        -1.0970   -4.6900   -2.6580 ca        1 MOL     -0.292468
     90 C32        -3.2820   -5.8220   -2.6740 ca        1 MOL     -0.292468
     91 C33        -2.1910   -5.3070   -3.3440 ca        1 MOL      0.285776
     92 O14        -2.2810   -5.3370   -4.7000 oh        1 MOL     -0.482084
     93 H37        -3.8210   -2.1440    0.8030 hn        1 MOL      0.161530
     94 H38        -2.7230   -3.8490    2.7270 h1        1 MOL      0.074293
     95 H39        -3.5320   -5.5630    1.1520 hc        1 MOL      0.111397
     96 H40        -1.7930   -5.6560    1.2750 hc        1 MOL      0.111397
     97 H41        -0.4730   -3.9480   -0.7820 ha        1 MOL      0.142750
     98 H42        -4.1910   -6.2160   -0.8110 ha        1 MOL      0.142750
     99 H43        -0.3000   -4.2280   -3.2080 ha        1 MOL      0.151495
    100 H44        -4.0310   -6.3080   -3.2830 ha        1 MOL      0.151495
    101 H45        -1.4060   -5.1140   -5.0420 ho        1 MOL      0.359779
    102 N10        -0.2800   -3.3650    2.0350 n         1 MOL     -0.300277
    103 C34         1.1000   -2.8010    1.9070 c3        1 MOL     -0.346512
    104 C35         2.1490   -3.7820    1.4130 c         1 MOL      0.505807
    105 O15         2.3360   -4.9050    1.8110 o         1 MOL     -0.531796
    106 C36         1.5370   -2.1760    3.2940 c3        1 MOL     -0.278968
    107 C37         1.7050   -3.2730    4.4380 c3        1 MOL      0.299051
    108 C38         0.5530   -1.0620    3.6640 c3        1 MOL      0.129041
    109 C39         2.1710   -2.7810    5.7950 c3        1 MOL     -0.338007
    110 H46        -0.3470   -4.2580    2.4840 hn        1 MOL      0.268938
    111 H47         1.1070   -1.8960    1.3070 h1        1 MOL      0.373187
    112 H48         2.5150   -1.7120    3.2280 hc        1 MOL      0.074998
    113 H49         2.3430   -4.1060    4.1560 hc        1 MOL     -0.030446
    114 H50         0.7910   -3.8240    4.6560 hc        1 MOL     -0.030446
    115 H51        -0.4050   -1.5360    3.8710 hc        1 MOL     -0.005859
    116 H52         0.8690   -0.5260    4.5620 hc        1 MOL     -0.005859
    117 H53         0.4020   -0.4450    2.7810 hc        1 MOL     -0.005859
    118 H54         2.2760   -3.7120    6.3580 hc        1 MOL      0.077339
    119 H55         3.1650   -2.3730    5.6160 hc        1 MOL      0.077339
    120 H56         1.5810   -2.0180    6.3130 hc        1 MOL      0.077339
    121 N11         2.9580   -3.1630    0.6010 n         1 MOL     -0.107737
    122 C40         4.1110   -3.8090   -0.0730 c3        1 MOL      0.093518
    123 C41         5.2800   -2.9170    0.1060 c         1 MOL      0.343630
    124 O16         5.1180   -1.7160    0.3710 o         1 MOL     -0.401185
    125 C42         3.8710   -3.9090   -1.5870 c3        1 MOL      0.290289
    126 O17         2.6430   -4.5640   -1.7880 oh        1 MOL     -0.624567
    127 H57         2.8490   -2.1810    0.3600 hn        1 MOL      0.026909
    128 H58         4.2900   -4.8220    0.2900 h1        1 MOL      0.052640
    129 H59         4.6950   -4.4110   -2.0930 h1        1 MOL     -0.026134
    130 H60         3.8520   -2.9100   -2.0290 h1        1 MOL     -0.026134
    131 H61         2.9010   -5.2960   -2.3570 ho        1 MOL      0.400620
    132 N12         6.5290   -3.4550   -0.0770 n         1 MOL     -0.473408
    133 C43         7.7630   -2.8160    0.3210 c3        1 MOL      0.242138
    134 C44         8.0300   -1.3660   -0.2360 c         1 MOL      0.386975
    135 O18         8.3270   -0.4550    0.5250 o         1 MOL     -0.510631
    136 C45         8.8690   -3.7630   -0.1050 c3        1 MOL     -0.454904
    137 H62         6.6300   -4.3890   -0.4400 hn        1 MOL      0.283629
    138 H63         7.7130   -2.6960    1.3970 h1        1 MOL      0.083930
    139 H64         8.6000   -4.7160    0.3520 hc        1 MOL      0.132746
    140 H65         8.9850   -3.8030   -1.1790 hc        1 MOL      0.132746
    141 H66         9.7990   -3.5150    0.4170 hc        1 MOL      0.132746
    142 N13         8.0440   -1.0790   -1.5220 n         1 MOL     -0.257188
    143 C46         8.1740    0.2040   -2.1680 c3        1 MOL      0.039914
    144 C47         7.1180    1.2990   -1.8040 c         1 MOL      0.559183
    145 O19         7.4920    2.4130   -1.7920 o         1 MOL     -0.542973
    146 C48         8.2090    0.0030   -3.7070 c3        1 MOL     -0.233297
    147 H67         7.8070   -1.8300   -2.1530 hn        1 MOL      0.200323
    148 H68         9.1140    0.5650   -1.7480 h1        1 MOL      0.092903
    149 H69         8.6610    0.9120   -4.1070 hc        1 MOL      0.074363
    150 H70         8.8270   -0.8550   -3.9890 hc        1 MOL      0.074363
    151 H71         7.1710   -0.1160   -4.0410 hc        1 MOL      0.074363
    152 N14         5.8830    0.9230   -1.4770 n         1 MOL     -0.387728
    153 C49         4.9420    1.8690   -0.8830 c3        1 MOL      0.016277
    154 C50         5.1480    2.1890    0.5980 c         1 MOL      0.516174
    155 O20         4.7870    3.2000    1.0940 o         1 MOL     -0.545775
    156 C51         3.4020    1.4890   -1.1980 c3        1 MOL     -0.014850
    157 C52         2.8940    0.3130   -0.4020 c3        1 MOL      0.160698
    158 C53         1.3710    0.1260   -0.4290 c         1 MOL      0.472480
    159 O21         0.5640    1.1120   -0.1710 o         1 MOL     -0.692115
    160 O22         0.8600   -0.9030   -0.8520 o         1 MOL     -0.692115
    161 H72         5.6910   -0.0680   -1.3810 hn        1 MOL      0.192144
    162 H73         5.1050    2.8770   -1.2760 h1        1 MOL     -0.003368
    163 H74         3.4260    1.2840   -2.2660 hc        1 MOL      0.003296
    164 H75         2.8160    2.4030   -1.0600 hc        1 MOL      0.003296
    165 H76         3.2920    0.4650    0.6030 hc        1 MOL      0.005847
    166 H77         3.3890   -0.5900   -0.7690 hc        1 MOL      0.005847
    167 N15         5.6850    1.2450    1.3500 n         1 MOL     -0.164431
    168 C54         5.8990    1.3620    2.8430 c3        1 MOL     -0.242997
    169 H78         6.6470    0.6360    3.1610 h1        1 MOL      0.115908
    170 H79         6.2450    2.3680    3.0840 h1        1 MOL      0.115908
    171 H80         4.9610    1.1670    3.3620 h1        1 MOL      0.115908
    172 H81         5.9970    0.4110    0.8680 hn        1 MOL      0.136341
    173 Ca1        -1.6100    0.1300   -1.1220 Ca        1 MOL      1.820118
    174 O23        -0.7710   -0.7950   -3.4510 oh        1 MOL     -0.764433
    175 H82        -0.3390   -1.5520   -3.0610 ho        1 MOL      0.385586
    176 H83        -0.3940   -0.7440   -4.3390 ho        1 MOL      0.385586
@<TRIPOS>BOND
     1    1    2 1   
     2    1    4 1   
     3    1    5 1   
     4    1    6 1   
     5    2    3 2   
     6    2    7 1   
     7    7    8 1   
     8    7   15 1   
     9    8    9 1   
    10    8   11 1   
    11    8   16 1   
    12    9   10 2   
    13    9   19 1   
    14   11   12 1   
    15   11   17 1   
    16   11   18 1   
    17   12   13 1   
    18   12   14 1   
    19   19   20 1   
    20   19   28 1   
    21   20   21 1   
    22   20   23 1   
    23   20   29 1   
    24   21   22 2   
    25   21   41 1   
    26   23   24 1   
    27   23   30 1   
    28   23   31 1   
    29   24   25 1   
    30   24   32 1   
    31   24   33 1   
    32   25   26 1   
    33   25   34 1   
    34   25   35 1   
    35   26   27 1   
    36   26   36 1   
    37   26   37 1   
    38   27   38 1   
    39   27   39 1   
    40   27   40 1   
    41   41   42 1   
    42   41   49 1   
    43   42   43 1   
    44   42   45 1   
    45   42   50 1   
    46   43   44 2   
    47   43   53 1   
    48   45   46 1   
    49   45   51 1   
    50   45   52 1   
    51   46   47 1   
    52   46   48 1   
    53   53   54 1   
    54   53   57 1   
    55   54   55 1   
    56   54   58 1   
    57   54   59 1   
    58   55   56 2   
    59   55   60 1   
    60   60   61 1   
    61   60   68 1   
    62   61   62 1   
    63   61   64 1   
    64   61   69 1   
    65   62   63 2   
    66   62   74 1   
    67   64   65 1   
    68   64   70 1   
    69   64   71 1   
    70   65   66 1   
    71   65   67 2   
    72   66   72 1   
    73   66   73 1   
    74   74   75 1   
    75   74   78 1   
    76   75   76 1   
    77   75   79 1   
    78   75   80 1   
    79   76   77 2   
    80   76   81 1   
    81   81   82 1   
    82   81   93 1   
    83   82   83 1   
    84   82   85 1   
    85   82   94 1   
    86   83   84 2   
    87   83  102 1   
    88   85   86 1   
    89   85   95 1   
    90   85   96 1   
    91   86   87 ar  
    92   86   88 ar  
    93   87   89 ar  
    94   87   97 1   
    95   88   90 ar  
    96   88   98 1   
    97   89   91 ar  
    98   89   99 1   
    99   90   91 ar  
   100   90  100 1   
   101   91   92 1   
   102   92  101 1   
   103  102  103 1   
   104  102  110 1   
   105  103  104 1   
   106  103  106 1   
   107  103  111 1   
   108  104  105 2   
   109  104  121 1   
   110  106  107 1   
   111  106  108 1   
   112  106  112 1   
   113  107  109 1   
   114  107  113 1   
   115  107  114 1   
   116  108  115 1   
   117  108  116 1   
   118  108  117 1   
   119  109  118 1   
   120  109  119 1   
   121  109  120 1   
   122  121  122 1   
   123  121  127 1   
   124  122  123 1   
   125  122  125 1   
   126  122  128 1   
   127  123  124 2   
   128  123  132 1   
   129  125  126 1   
   130  125  129 1   
   131  125  130 1   
   132  126  131 1   
   133  132  133 1   
   134  132  137 1   
   135  133  134 1   
   136  133  136 1   
   137  133  138 1   
   138  134  135 2   
   139  134  142 1   
   140  136  139 1   
   141  136  140 1   
   142  136  141 1   
   143  142  143 1   
   144  142  147 1   
   145  143  144 1   
   146  143  146 1   
   147  143  148 1   
   148  144  145 2   
   149  144  152 1   
   150  146  149 1   
   151  146  150 1   
   152  146  151 1   
   153  152  153 1   
   154  152  161 1   
   155  153  154 1   
   156  153  156 1   
   157  153  162 1   
   158  154  155 2   
   159  154  167 1   
   160  156  157 1   
   161  156  163 1   
   162  156  164 1   
   163  157  158 1   
   164  157  165 1   
   165  157  166 1   
   166  158  159 1   
   167  158  160 1   
   168  167  168 1   
   169  167  172 1   
   170  168  169 1   
   171  168  170 1   
   172  168  171 1   
   173  174  175 1   
   174  174  176 1   
@<TRIPOS>SUBSTRUCTURE
     1 MOL         1 TEMP              0 ****  ****    0 ROOT
