@<TRIPOS>MOLECULE
MOL
  172   171     1     0     0
SMALL
resp


@<TRIPOS>ATOM
      1 C1          0.2550   -2.5600    6.0830 c3        1 MOL     -0.560339
      2 C2          0.5440   -2.7300    4.5460 c         1 MOL      0.724463
      3 O1         -0.1190   -3.4970    3.8870 o         1 MOL     -0.566617
      4 H1          0.0040   -1.5190    6.2920 hc        1 MOL      0.138393
      5 H2         -0.5810   -3.1980    6.3680 hc        1 MOL      0.138393
      6 H3          1.1400   -2.8420    6.6530 hc        1 MOL      0.138393
      7 N1          1.5770   -2.0910    4.1430 n         1 MOL     -0.560232
      8 C3          2.0840   -2.0480    2.7050 c3        1 MOL     -0.002554
      9 C4          2.6230   -3.3980    2.2840 c         1 MOL      0.646996
     10 O2          3.3740   -4.0820    2.9680 o         1 MOL     -0.594520
     11 C5          3.2370   -0.9940    2.5950 c3        1 MOL     -0.270400
     12 C6          3.7750   -0.8180    1.1750 c         1 MOL      0.574356
     13 O3          3.0390   -1.0490    0.1990 o         1 MOL     -0.610750
     14 O4          4.9520   -0.4310    1.0140 o         1 MOL     -0.610750
     15 H4          2.0830   -1.6210    4.8820 hn        1 MOL      0.293382
     16 H5          1.2450   -1.6270    2.1530 h1        1 MOL      0.127332
     17 H6          4.0740   -1.3070    3.2230 hc        1 MOL      0.102424
     18 H7          2.9260   -0.0190    2.9820 hc        1 MOL      0.102424
     19 N2          2.4180   -3.7140    0.9820 n         1 MOL     -0.473788
     20 C7          2.6500   -5.0020    0.3410 c3        1 MOL      0.337548
     21 C8          3.6600   -4.8830   -0.8260 c         1 MOL      0.236786
     22 O5          3.9920   -5.8520   -1.5120 o         1 MOL     -0.507535
     23 C9          1.3520   -5.4860   -0.2750 c3        1 MOL     -0.317225
     24 H8          1.8060   -3.0640    0.5040 hn        1 MOL      0.264258
     25 H9          3.1260   -5.6400    1.0870 h1        1 MOL      0.003367
     26 H10         0.6720   -5.5450    0.5780 hc        1 MOL      0.080049
     27 H11         0.9150   -4.8140   -1.0100 hc        1 MOL      0.080049
     28 H12         1.5720   -6.4800   -0.6810 hc        1 MOL      0.080049
     29 N3          4.1130   -3.6310   -1.1320 n         1 MOL      0.019743
     30 C10         5.0660   -3.3360   -2.2310 c3        1 MOL     -0.140989
     31 C11         6.4890   -2.9870   -1.7880 c         1 MOL      0.514180
     32 O6          7.4320   -3.2580   -2.5440 o         1 MOL     -0.560322
     33 C12         4.5650   -2.0870   -2.9890 c3        1 MOL      0.087612
     34 C13         3.0730   -2.1830   -3.3290 c         1 MOL      0.612722
     35 O7          2.5880   -3.1950   -3.8290 o         1 MOL     -0.660980
     36 O8          2.4420   -1.1140   -3.1990 o         1 MOL     -0.660980
     37 H13         3.8370   -2.8580   -0.5560 hn        1 MOL      0.032218
     38 H14         5.0670   -4.2540   -2.8150 h1        1 MOL      0.114741
     39 H15         5.1420   -1.9580   -3.9060 hc        1 MOL     -0.038403
     40 H16         4.7030   -1.1590   -2.4370 hc        1 MOL     -0.038403
     41 N4          6.6620   -2.5690   -0.5280 n         1 MOL     -0.509440
     42 C14         7.9720   -2.0790   -0.0740 c3        1 MOL      0.159118
     43 C15         8.1120   -0.5850   -0.3830 c         1 MOL      0.329631
     44 O9          9.2390   -0.1190   -0.4830 o         1 MOL     -0.562806
     45 H17         5.8060   -2.4370    0.0030 hn        1 MOL      0.277285
     46 H18         8.8670   -2.5160   -0.5170 h1        1 MOL      0.036821
     47 H19         8.1260   -2.2950    0.9870 h1        1 MOL      0.036821
     48 N5          6.9930    0.0480   -0.7220 n         1 MOL      0.037930
     49 C16         7.0510    1.3540   -1.3310 c3        1 MOL     -0.356959
     50 C17         6.7940    2.5560   -0.3540 c         1 MOL      0.469576
     51 O10         7.0480    3.7360   -0.6310 o         1 MOL     -0.544590
     52 C18         6.1970    1.3820   -2.5660 c3        1 MOL      0.065274
     53 C19         4.7180    1.9080   -2.3230 c         1 MOL      0.438130
     54 N6          4.2810    2.8860   -3.0240 n         1 MOL     -0.650722
     55 O11         3.9250    1.3880   -1.5370 o         1 MOL     -0.546240
     56 H20         6.1160   -0.1920   -0.2820 hn        1 MOL      0.180231
     57 H21         7.9840    1.3220   -1.8960 h1        1 MOL      0.186877
     58 H22         6.0160    0.3710   -2.9130 hc        1 MOL      0.025350
     59 H23         6.6490    1.9240   -3.4090 hc        1 MOL      0.025350
     60 H24         4.8730    3.4110   -3.6650 hn        1 MOL      0.328809
     61 H25         3.3720    3.2490   -2.7820 hn        1 MOL      0.328809
     62 N7          6.3340    2.2160    0.8770 n         1 MOL     -0.093215
     63 C20         6.1480    3.1820    2.0120 c3        1 MOL     -0.307230
     64 C21         4.8390    3.9870    1.9120 c         1 MOL      0.530748
     65 O12         4.6360    4.9310    2.7120 o         1 MOL     -0.570854
     66 H26         6.1600    1.2260    1.0010 hn        1 MOL      0.104416
     67 H27         7.0370    3.8160    2.0190 h1        1 MOL      0.146640
     68 H28         6.1120    2.6340    2.9560 h1        1 MOL      0.146640
     69 N8          3.9360    3.6240    1.0020 n         1 MOL     -0.244057
     70 C22         2.6420    4.3840    0.8740 c3        1 MOL     -0.039822
     71 C23         1.5050    3.3540    0.8820 c         1 MOL      0.474625
     72 O13         1.6880    2.1380    0.5600 o         1 MOL     -0.535390
     73 C24         2.5670    5.3430   -0.3630 c3        1 MOL      0.369330
     74 C25         3.7690    6.3270   -0.4280 c3        1 MOL     -0.423515
     75 O14         2.6080    4.6990   -1.5820 oh        1 MOL     -0.613345
     76 H29         4.1170    2.7500    0.5160 hn        1 MOL      0.267668
     77 H30         2.5070    5.0690    1.7130 h1        1 MOL      0.072042
     78 H31         1.6650    5.9510   -0.2930 h1        1 MOL     -0.009781
     79 H32         2.9020    5.3200   -2.2550 ho        1 MOL      0.410109
     80 H33         3.7710    6.6120    0.6170 hc        1 MOL      0.110746
     81 H34         4.6790    5.7120   -0.4230 hc        1 MOL      0.110746
     82 H35         3.8450    7.1620   -1.1240 hc        1 MOL      0.110746
     83 N9          0.2720    3.7340    1.2700 n         1 MOL     -0.376966
     84 C26        -0.9120    2.9260    1.4980 c3        1 MOL     -0.273570
     85 C27        -1.8310    2.9290    0.2630 c         1 MOL      0.580220
     86 O15        -2.3130    3.9960   -0.0590 o         1 MOL     -0.594600
     87 C28        -1.6790    3.3170    2.7860 c3        1 MOL      0.202961
     88 C29        -0.8500    3.5010    4.0660 c3        1 MOL     -0.124635
     89 C30        -2.8940    2.3270    3.0110 c3        1 MOL     -0.094796
     90 C31        -1.7140    3.8050    5.2910 c3        1 MOL     -0.188685
     91 H36         0.1340    4.7370    1.2420 hn        1 MOL      0.281780
     92 H37        -0.4910    1.9760    1.8510 h1        1 MOL      0.164921
     93 H38        -2.1690    4.2830    2.6300 hc        1 MOL      0.012804
     94 H39        -0.2090    4.3760    3.9220 hc        1 MOL      0.052729
     95 H40        -0.3240    2.5880    4.3580 hc        1 MOL      0.052729
     96 H41        -3.7050    2.7060    3.6410 hc        1 MOL      0.013651
     97 H42        -3.4680    2.0510    2.1360 hc        1 MOL      0.013651
     98 H43        -2.5980    1.3800    3.4580 hc        1 MOL      0.013651
     99 H44        -2.1570    2.8590    5.6100 hc        1 MOL      0.046619
    100 H45        -1.2110    4.1710    6.1840 hc        1 MOL      0.046619
    101 H46        -2.4750    4.4930    4.9200 hc        1 MOL      0.046619
    102 N10        -2.1230    1.8150   -0.4030 n         1 MOL     -0.117862
    103 C32        -3.0890    1.5700   -1.5180 c3        1 MOL     -0.023987
    104 C33        -4.4460    1.1420   -0.9420 c         1 MOL      0.507474
    105 O16        -4.4640    0.6830    0.2150 o         1 MOL     -0.400601
    106 C34        -2.6080    0.5280   -2.4950 c3        1 MOL     -0.448430
    107 C35        -1.2450    0.9420   -3.0740 c         1 MOL      0.967301
    108 O17        -0.3730    0.0830   -3.0570 o         1 MOL     -0.769185
    109 O18        -1.0410    2.0500   -3.6270 o         1 MOL     -0.769185
    110 H47        -1.7010    1.0040    0.0330 hn        1 MOL      0.011934
    111 H48        -3.2120    2.5570   -1.9790 h1        1 MOL      0.055087
    112 H49        -3.3480    0.3880   -3.2900 hc        1 MOL      0.137650
    113 H50        -2.5030   -0.4280   -1.9880 hc        1 MOL      0.137650
    114 N11        -5.5120    1.1250   -1.7790 n         1 MOL     -0.675880
    115 C36        -6.8740    0.9030   -1.4210 c3        1 MOL      0.482765
    116 C37        -7.0920   -0.4720   -0.7310 c         1 MOL      0.134532
    117 O19        -7.8100   -0.5380    0.2580 o         1 MOL     -0.469899
    118 C38        -7.8860    1.2510   -2.5490 c3        1 MOL     -0.407707
    119 C39        -9.3220    1.3080   -2.1210 ca        1 MOL      0.372591
    120 C40        -9.7090    2.2400   -1.1560 ca        1 MOL     -0.294095
    121 C41       -10.3200    0.5880   -2.7720 ca        1 MOL     -0.294095
    122 C42       -11.0680    2.5220   -0.9080 ca        1 MOL     -0.017406
    123 C43       -11.6490    0.8100   -2.5030 ca        1 MOL     -0.017406
    124 C44       -12.0850    1.8580   -1.6290 ca        1 MOL     -0.230910
    125 H51        -5.3380    1.4320   -2.7270 hn        1 MOL      0.362798
    126 H52        -7.1010    1.5560   -0.5660 h1        1 MOL      0.033711
    127 H53        -7.6380    0.4770   -3.2670 hc        1 MOL      0.092018
    128 H54        -7.6310    2.1970   -3.0210 hc        1 MOL      0.092018
    129 H55        -9.0040    2.8230   -0.5680 ha        1 MOL      0.139044
    130 H56       -10.0050   -0.2690   -3.3480 ha        1 MOL      0.139044
    131 H57       -11.3040    3.2010   -0.1030 ha        1 MOL      0.094650
    132 H58       -12.3440    0.1740   -3.0250 ha        1 MOL      0.094650
    133 H59       -13.1280    2.0990   -1.4910 ha        1 MOL      0.131776
    134 N12        -6.4430   -1.6570   -1.1470 n         1 MOL      0.065780
    135 C45        -6.4890   -2.9910   -0.4710 c3        1 MOL     -0.160295
    136 C46        -5.5180   -3.1080    0.6830 c         1 MOL      0.354644
    137 O20        -5.4960   -4.1080    1.3690 o         1 MOL     -0.533982
    138 C47        -6.1260   -4.0390   -1.6440 c3        1 MOL      0.021688
    139 C48        -5.6350   -3.1430   -2.8110 c3        1 MOL     -0.079974
    140 C49        -5.6610   -1.6910   -2.3720 c3        1 MOL     -0.087434
    141 H60        -7.5120   -3.2410   -0.1800 h1        1 MOL      0.130309
    142 H61        -5.2970   -4.6750   -1.3430 hc        1 MOL      0.034921
    143 H62        -6.9400   -4.6630   -2.0010 hc        1 MOL      0.034921
    144 H63        -4.6070   -3.4290   -3.0190 hc        1 MOL      0.040348
    145 H64        -6.2820   -3.3210   -3.6790 hc        1 MOL      0.040348
    146 H65        -4.6180   -1.4030   -2.2000 h1        1 MOL      0.055787
    147 H66        -6.0460   -1.0480   -3.1650 h1        1 MOL      0.055787
    148 N13        -4.6400   -2.1590    0.9980 n         1 MOL      0.052209
    149 C50        -3.7200   -2.1980    2.0950 c3        1 MOL     -0.116826
    150 C51        -4.3340   -1.4750    3.2760 c         1 MOL      0.437743
    151 O21        -4.2420   -1.9240    4.4070 o         1 MOL     -0.546555
    152 C52        -2.5100   -1.4790    1.6920 c3        1 MOL     -0.158326
    153 C53        -1.6790   -2.3050    0.7580 c3        1 MOL      0.219722
    154 C54        -0.5330   -1.5580    0.1690 c         1 MOL      0.511353
    155 O22         0.4760   -2.1100   -0.4020 o         1 MOL     -0.660503
    156 O23        -0.5260   -0.3020    0.1560 o         1 MOL     -0.660503
    157 H67        -4.6890   -1.3380    0.4020 hn        1 MOL     -0.016350
    158 H68        -3.5660   -3.2440    2.3590 h1        1 MOL      0.118414
    159 H69        -1.9010   -1.0290    2.4810 hc        1 MOL      0.093216
    160 H70        -2.8520   -0.6290    1.1020 hc        1 MOL      0.093216
    161 H71        -2.3650   -2.6860    0.0000 hc        1 MOL     -0.012716
    162 H72        -1.2860   -3.2020    1.2490 hc        1 MOL     -0.012716
    163 N14        -5.1790   -0.4840    2.9960 n         1 MOL     -0.145640
    164 C55        -6.0810    0.2030    3.9310 c3        1 MOL     -0.014416
    165 H73        -5.7610    1.2370    4.0500 h1        1 MOL      0.029812
    166 H74        -7.0980    0.1800    3.5380 h1        1 MOL      0.029812
    167 H75        -6.0540   -0.2990    4.8980 h1        1 MOL      0.029812
    168 H76        -5.2270   -0.1440    2.0460 hn        1 MOL      0.167410
    169 Ca1         1.5740    0.2050   -1.2490 Ca        1 MOL      1.683773
    170 O24         1.1710    2.5930   -2.3720 oh        1 MOL     -0.873095
    171 H77         1.4080    3.4780   -2.1080 ho        1 MOL      0.402482
    172 H78         0.4130    2.7000   -2.9500 ho        1 MOL      0.402482
@<TRIPOS>BOND
     1    1    2 1   
     2    1    4 1   
     3    1    5 1   
     4    1    6 1   
     5    2    3 2   
     6    2    7 1   
     7    7    8 1   
     8    7   15 1   
     9    8    9 1   
    10    8   11 1   
    11    8   16 1   
    12    9   10 2   
    13    9   19 1   
    14   11   12 1   
    15   11   17 1   
    16   11   18 1   
    17   12   13 1   
    18   12   14 1   
    19   19   20 1   
    20   19   24 1   
    21   20   21 1   
    22   20   23 1   
    23   20   25 1   
    24   21   22 2   
    25   21   29 1   
    26   23   26 1   
    27   23   27 1   
    28   23   28 1   
    29   29   30 1   
    30   29   37 1   
    31   30   31 1   
    32   30   33 1   
    33   30   38 1   
    34   31   32 2   
    35   31   41 1   
    36   33   34 1   
    37   33   39 1   
    38   33   40 1   
    39   34   35 1   
    40   34   36 1   
    41   41   42 1   
    42   41   45 1   
    43   42   43 1   
    44   42   46 1   
    45   42   47 1   
    46   43   44 2   
    47   43   48 1   
    48   48   49 1   
    49   48   56 1   
    50   49   50 1   
    51   49   52 1   
    52   49   57 1   
    53   50   51 2   
    54   50   62 1   
    55   52   53 1   
    56   52   58 1   
    57   52   59 1   
    58   53   54 1   
    59   53   55 2   
    60   54   60 1   
    61   54   61 1   
    62   62   63 1   
    63   62   66 1   
    64   63   64 1   
    65   63   67 1   
    66   63   68 1   
    67   64   65 2   
    68   64   69 1   
    69   69   70 1   
    70   69   76 1   
    71   70   71 1   
    72   70   73 1   
    73   70   77 1   
    74   71   72 2   
    75   71   83 1   
    76   73   74 1   
    77   73   75 1   
    78   73   78 1   
    79   74   80 1   
    80   74   81 1   
    81   74   82 1   
    82   75   79 1   
    83   83   84 1   
    84   83   91 1   
    85   84   85 1   
    86   84   87 1   
    87   84   92 1   
    88   85   86 2   
    89   85  102 1   
    90   87   88 1   
    91   87   89 1   
    92   87   93 1   
    93   88   90 1   
    94   88   94 1   
    95   88   95 1   
    96   89   96 1   
    97   89   97 1   
    98   89   98 1   
    99   90   99 1   
   100   90  100 1   
   101   90  101 1   
   102  102  103 1   
   103  102  110 1   
   104  103  104 1   
   105  103  106 1   
   106  103  111 1   
   107  104  105 2   
   108  104  114 1   
   109  106  107 1   
   110  106  112 1   
   111  106  113 1   
   112  107  108 1   
   113  107  109 1   
   114  114  115 1   
   115  114  125 1   
   116  115  116 1   
   117  115  118 1   
   118  115  126 1   
   119  116  117 2   
   120  116  134 1   
   121  118  119 1   
   122  118  127 1   
   123  118  128 1   
   124  119  120 ar  
   125  119  121 ar  
   126  120  122 ar  
   127  120  129 1   
   128  121  123 ar  
   129  121  130 1   
   130  122  124 ar  
   131  122  131 1   
   132  123  124 ar  
   133  123  132 1   
   134  124  133 1   
   135  134  135 1   
   136  134  140 1   
   137  135  136 1   
   138  135  138 1   
   139  135  141 1   
   140  136  137 2   
   141  136  148 1   
   142  138  139 1   
   143  138  142 1   
   144  138  143 1   
   145  139  140 1   
   146  139  144 1   
   147  139  145 1   
   148  140  146 1   
   149  140  147 1   
   150  148  149 1   
   151  148  157 1   
   152  149  150 1   
   153  149  152 1   
   154  149  158 1   
   155  150  151 2   
   156  150  163 1   
   157  152  153 1   
   158  152  159 1   
   159  152  160 1   
   160  153  154 1   
   161  153  161 1   
   162  153  162 1   
   163  154  155 1   
   164  154  156 1   
   165  163  164 1   
   166  163  168 1   
   167  164  165 1   
   168  164  166 1   
   169  164  167 1   
   170  170  171 1   
   171  170  172 1   
@<TRIPOS>SUBSTRUCTURE
     1 MOL         1 TEMP              0 ****  ****    0 ROOT
