@<TRIPOS>MOLECULE
MOL
  182   178     1     0     0
SMALL
resp


@<TRIPOS>ATOM
      1 C1          1.4940   -5.0670    6.2140 c3        1 MOL     -0.440726
      2 C2          1.3580   -4.5370    4.7840 c         1 MOL      0.698174
      3 O1          0.6130   -5.1030    3.9290 o         1 MOL     -0.632518
      4 H1          2.2270   -5.8730    6.2340 hc        1 MOL      0.122973
      5 H2          1.8220   -4.2620    6.8710 hc        1 MOL      0.122973
      6 H3          0.5300   -5.4450    6.5560 hc        1 MOL      0.122973
      7 N1          2.0380   -3.4690    4.4270 n         1 MOL     -0.579972
      8 C3          2.1080   -2.9660    2.9970 c3        1 MOL      0.121452
      9 C4          2.7740   -4.0710    2.0140 c         1 MOL      0.533453
     10 O2          3.8940   -4.5210    2.1680 o         1 MOL     -0.521103
     11 C5          3.0760   -1.7570    3.0540 c3        1 MOL     -0.047255
     12 C6          3.3630   -1.1460    1.6900 c         1 MOL      0.666474
     13 O3          2.7480   -1.4490    0.6670 o         1 MOL     -0.702862
     14 O4          4.2050   -0.1830    1.7310 o         1 MOL     -0.702862
     15 H4          2.4850   -2.8870    5.1100 hn        1 MOL      0.324862
     16 H5          1.1680   -2.5510    2.6350 h1        1 MOL      0.020650
     17 H6          3.9990   -2.1140    3.5200 hc        1 MOL      0.019735
     18 H7          2.6310   -1.0180    3.7140 hc        1 MOL      0.019735
     19 N2          1.8700   -4.6820    1.1770 n         1 MOL     -0.116206
     20 C7          1.9820   -5.9830    0.3310 c3        1 MOL     -0.247188
     21 C8          2.8160   -5.9160   -0.8910 c         1 MOL      0.652982
     22 O5          2.8770   -6.8360   -1.6900 o         1 MOL     -0.558091
     23 C9          0.5750   -6.5790    0.0840 c3        1 MOL     -0.037908
     24 C10        -0.2560   -5.5960   -0.7140 c3        1 MOL      0.042855
     25 C11        -1.6120   -6.2620   -1.0760 c3        1 MOL     -0.002239
     26 C12        -2.6130   -5.3960   -1.8850 c3        1 MOL      0.153218
     27 N3         -3.8010   -6.1340   -2.3470 n4        1 MOL     -0.484982
     28 H8          0.9700   -4.2460    1.0480 hn        1 MOL      0.199469
     29 H9          2.5220   -6.6920    0.9630 h1        1 MOL      0.141682
     30 H10         0.0570   -6.7900    1.0160 hc        1 MOL      0.054099
     31 H11         0.5830   -7.4940   -0.5080 hc        1 MOL      0.054099
     32 H12         0.1710   -5.2570   -1.6550 hc        1 MOL     -0.011155
     33 H13        -0.4270   -4.7010   -0.1210 hc        1 MOL     -0.011155
     34 H14        -2.0610   -6.5770   -0.1360 hc        1 MOL      0.013027
     35 H15        -1.4430   -7.2030   -1.5940 hc        1 MOL      0.013027
     36 H16        -2.0420   -4.9290   -2.6940 hx        1 MOL      0.047075
     37 H17        -2.9140   -4.5530   -1.2690 hx        1 MOL      0.047075
     38 H18        -3.6200   -6.6040   -3.2190 hn        1 MOL      0.361546
     39 H19        -4.1530   -6.7630   -1.6340 hn        1 MOL      0.361546
     40 H20        -4.4970   -5.4440   -2.6110 hn        1 MOL      0.361546
     41 N4          3.5460   -4.7720   -0.9690 n         1 MOL     -0.357491
     42 C13         4.4160   -4.4460   -2.0310 c3        1 MOL      0.055779
     43 C14         5.5080   -3.4860   -1.5800 c         1 MOL      0.405013
     44 O6          6.5170   -3.4370   -2.2930 o         1 MOL     -0.521195
     45 C15         3.5900   -3.8460   -3.1480 c3        1 MOL     -0.226434
     46 C16         2.8360   -2.6190   -2.6750 c         1 MOL      0.743401
     47 O7          1.6310   -2.6890   -2.5110 o         1 MOL     -0.712125
     48 O8          3.4100   -1.5250   -2.5330 o         1 MOL     -0.712125
     49 H21         3.2780   -4.0660   -0.3110 hn        1 MOL      0.043862
     50 H22         4.7780   -5.4200   -2.3450 h1        1 MOL      0.102190
     51 H23         2.9270   -4.6240   -3.5340 hc        1 MOL      0.075399
     52 H24         4.2910   -3.6920   -3.9790 hc        1 MOL      0.075399
     53 N5          5.4290   -2.6470   -0.5320 n         1 MOL     -0.081017
     54 C17         6.5760   -1.9680    0.0900 c3        1 MOL     -0.320519
     55 C18         7.0240   -0.6230   -0.6080 c         1 MOL      0.544123
     56 O9          8.0700   -0.0290   -0.4790 o         1 MOL     -0.555681
     57 H25         4.5330   -2.5820   -0.0590 hn        1 MOL      0.198839
     58 H26         7.4920   -2.5700    0.0620 h1        1 MOL      0.145837
     59 H27         6.4870   -1.7330    1.1460 h1        1 MOL      0.145837
     60 N6          6.0310    0.0420   -1.2010 n         1 MOL     -0.190295
     61 C19         6.1940    1.4540   -1.6160 c3        1 MOL     -0.006783
     62 C20         6.2320    2.4720   -0.4150 c         1 MOL      0.362209
     63 O10         6.5860    3.6460   -0.6320 o         1 MOL     -0.493598
     64 C21         5.1880    1.9370   -2.6340 c3        1 MOL     -0.387953
     65 C22         3.7020    1.8410   -2.2350 c         1 MOL      0.503447
     66 N7          2.8360    2.0200   -3.1540 n         1 MOL     -0.777638
     67 O11         3.2950    1.5180   -1.1730 o         1 MOL      0.132682
     68 H28         5.1060   -0.3450   -1.0960 hn        1 MOL      0.031152
     69 H29         7.1940    1.5670   -2.0540 h1        1 MOL      0.128459
     70 H30         5.3020    1.3190   -3.5250 hc        1 MOL      0.131750
     71 H31         5.4980    2.9600   -2.8490 hc        1 MOL      0.131750
     72 H32         3.1210    2.4630   -4.0070 hn        1 MOL      0.344767
     73 H33         1.8520    1.9660   -2.9350 hn        1 MOL      0.344767
     74 N8          5.8390    2.0490    0.7730 n         1 MOL     -0.252365
     75 C23         5.6300    3.0170    1.8940 c3        1 MOL     -0.028815
     76 C24         4.2810    3.5970    2.1060 c         1 MOL      0.426229
     77 O12         4.1550    4.6050    2.8340 o         1 MOL     -0.548806
     78 H34         5.5310    1.0910    0.8440 hn        1 MOL      0.253096
     79 H35         6.2990    3.8640    1.6960 h1        1 MOL      0.090376
     80 H36         6.0640    2.6700    2.8250 h1        1 MOL      0.090376
     81 N9          3.2500    3.1390    1.3470 n         1 MOL     -0.072745
     82 C25         1.8700    3.6550    1.2780 c3        1 MOL      0.014132
     83 C26         0.8010    2.5370    1.0990 c         1 MOL      0.275692
     84 O13         0.9530    1.4100    0.5950 o         1 MOL     -0.463223
     85 C27         1.7460    4.6040    0.0810 c3        1 MOL      0.448274
     86 C28         2.5740    5.8300   -0.0260 ca        1 MOL     -0.241914
     87 C29         3.8270    5.7110   -0.7120 ca        1 MOL      0.001718
     88 C30         2.1740    7.0630    0.4930 ca        1 MOL      0.001718
     89 C31         4.5840    6.8470   -0.8730 ca        1 MOL     -0.396339
     90 C32         2.9960    8.1900    0.4250 ca        1 MOL     -0.396339
     91 C33         4.2650    8.0230   -0.1860 ca        1 MOL      0.549076
     92 O14         5.0180    9.1620   -0.2800 oh        1 MOL     -0.564745
     93 H37         3.4170    2.3730    0.7160 hn        1 MOL     -0.074306
     94 H38         1.6700    4.3000    2.1400 h1        1 MOL      0.034391
     95 H39         0.7560    5.0060   -0.0860 hc        1 MOL     -0.113756
     96 H40         1.9070    4.0040   -0.8120 hc        1 MOL     -0.113756
     97 H41         4.1810    4.8630   -1.2780 ha        1 MOL      0.082514
     98 H42         1.2170    7.0710    0.9870 ha        1 MOL      0.082514
     99 H43         5.4410    6.7590   -1.5280 ha        1 MOL      0.166600
    100 H44         2.6760    9.1910    0.6890 ha        1 MOL      0.166600
    101 H45         4.6820    9.9680    0.1270 ho        1 MOL      0.377784
    102 N10        -0.4500    2.9750    1.4330 n         1 MOL     -0.266270
    103 C34        -1.6040    2.1700    1.2020 c3        1 MOL     -0.140082
    104 C35        -2.7510    3.0330    0.6860 c         1 MOL      0.375216
    105 O15        -2.9150    4.1370    1.2420 o         1 MOL     -0.523681
    106 C36        -2.0430    1.3720    2.4550 c3        1 MOL      0.279651
    107 C37        -2.6090    2.2930    3.5410 c3        1 MOL     -0.018111
    108 C38        -0.9480    0.4190    3.0050 c3        1 MOL     -0.281589
    109 C39        -2.9220    1.7100    4.9200 c3        1 MOL     -0.391814
    110 H46        -0.6300    3.8520    1.8970 hn        1 MOL      0.267729
    111 H47        -1.3840    1.4740    0.4000 h1        1 MOL      0.070524
    112 H48        -2.8490    0.6810    2.1750 hc        1 MOL     -0.039702
    113 H49        -3.5590    2.7230    3.2340 hc        1 MOL      0.053955
    114 H50        -1.9120    3.1040    3.7520 hc        1 MOL      0.053955
    115 H51        -0.6050    0.8220    3.9610 hc        1 MOL      0.075525
    116 H52        -1.3070   -0.6080    3.0280 hc        1 MOL      0.075525
    117 H53        -0.1070    0.3630    2.3290 hc        1 MOL      0.075525
    118 H54        -2.0700    1.6520    5.5940 hc        1 MOL      0.094135
    119 H55        -3.5080    2.4830    5.3990 hc        1 MOL      0.094135
    120 H56        -3.4170    0.7410    4.9070 hc        1 MOL      0.094135
    121 N11        -3.4140    2.6380   -0.4220 n         1 MOL     -0.150646
    122 C40        -4.6360    3.2840   -0.8590 c3        1 MOL     -0.048595
    123 C41        -5.8430    2.7330   -0.0660 c         1 MOL      0.413534
    124 O16        -5.6470    1.9920    0.9020 o         1 MOL     -0.376650
    125 C42        -4.7730    2.9880   -2.3430 c3        1 MOL      0.194369
    126 O17        -4.8420    1.5810   -2.5660 oh        1 MOL     -0.576799
    127 H57        -3.0580    1.9290   -1.0450 hn        1 MOL      0.198480
    128 H58        -4.6140    4.3710   -0.8650 h1        1 MOL      0.065685
    129 H59        -3.9270    3.5080   -2.8000 h1        1 MOL      0.003861
    130 H60        -5.6840    3.4240   -2.7580 h1        1 MOL      0.003861
    131 H61        -3.9500    1.2380   -2.6170 ho        1 MOL      0.361760
    132 N12        -7.0190    3.2650   -0.4250 n         1 MOL     -0.376289
    133 C43        -8.2710    2.7890    0.1700 c3        1 MOL      0.082643
    134 C44        -8.7320    1.3620   -0.2200 c         1 MOL      0.539264
    135 O18        -9.1110    0.6170    0.6300 o         1 MOL     -0.517882
    136 C45        -9.3690    3.8680   -0.0080 c3        1 MOL     -0.559767
    137 H62        -6.9900    4.0090   -1.1060 hn        1 MOL      0.289190
    138 H63        -8.1250    2.7900    1.2490 h1        1 MOL      0.121042
    139 H64        -9.3460    4.2530   -1.0310 hc        1 MOL      0.166879
    140 H65       -10.2910    3.4530    0.3830 hc        1 MOL      0.166879
    141 H66        -9.0100    4.6040    0.7110 hc        1 MOL      0.166879
    142 N13        -8.4280    0.9230   -1.4500 n         1 MOL     -0.408535
    143 C46        -8.6200   -0.3680   -1.8460 c3        1 MOL      0.030381
    144 C47        -7.6240   -1.3700   -1.1700 c         1 MOL      0.391752
    145 O19        -7.7720   -2.5770   -1.2850 o         1 MOL     -0.530961
    146 C48        -8.2580   -0.3590   -3.3700 c3        1 MOL     -0.136727
    147 H67        -8.0570    1.6540   -2.0470 hn        1 MOL      0.297593
    148 H68        -9.6470   -0.7110   -1.7360 h1        1 MOL      0.117862
    149 H69        -7.2980    0.0770   -3.6150 hc        1 MOL      0.047949
    150 H70        -8.3740   -1.3160   -3.8710 hc        1 MOL      0.047949
    151 H71        -8.9580    0.3260   -3.8470 hc        1 MOL      0.047949
    152 N14        -6.5170   -0.8520   -0.5850 n         1 MOL      0.048319
    153 C49        -5.4840   -1.6330    0.0780 c3        1 MOL     -0.081306
    154 C50        -5.9020   -1.7800    1.5350 c         1 MOL      0.461169
    155 O20        -5.8530   -2.8840    2.0270 o         1 MOL     -0.552864
    156 C51        -3.9710   -1.1560   -0.1410 c3        1 MOL      0.071786
    157 C52        -3.4610   -1.2950   -1.5820 c3        1 MOL     -0.174282
    158 C53        -2.3090   -0.2950   -1.8390 c         1 MOL      0.679108
    159 O21        -2.5290    0.7870   -2.4260 o         1 MOL     -0.643945
    160 O22        -1.1460   -0.4940   -1.4390 o         1 MOL     -0.643945
    161 H72        -6.3660    0.1290   -0.7460 hn        1 MOL     -0.064652
    162 H73        -5.4960   -2.6360   -0.3250 h1        1 MOL      0.062352
    163 H74        -3.1890   -1.5030    0.5330 hc        1 MOL     -0.027121
    164 H75        -3.9810   -0.0900    0.0740 hc        1 MOL     -0.027121
    165 H76        -4.2630   -1.0600   -2.2940 hc        1 MOL      0.039902
    166 H77        -3.2700   -2.3360   -1.8270 hc        1 MOL      0.039902
    167 N15        -6.3080   -0.6940    2.2180 n         1 MOL     -0.110756
    168 C54        -6.6350   -0.5740    3.6240 c3        1 MOL     -0.113100
    169 H78        -7.6210   -0.1210    3.7300 h1        1 MOL      0.072399
    170 H79        -6.6390   -1.5630    4.0820 h1        1 MOL      0.072399
    171 H80        -5.8920    0.0520    4.1180 h1        1 MOL      0.072399
    172 H81        -6.3880    0.1340    1.6410 hn        1 MOL      0.078266
    173 Ca1         1.4220   -0.3580   -1.2470 Ca        1 MOL      1.416682
    174 O23         0.9530   -0.2080   -3.8260 oh        1 MOL     -0.812891
    175 O24        -0.0640   -1.9100    0.4500 oh        1 MOL     -0.812891
    176 H82         0.7180    0.3890   -4.5400 ho        1 MOL      0.410524
    177 H83        -0.7380   -1.6990   -0.1890 ho        1 MOL      0.410524
    178 H84         1.0130   -1.0650   -4.2400 ho        1 MOL      0.410524
    179 H85        -0.5540   -2.2820    1.1900 ho        1 MOL      0.410524
    180 O25        -0.0220    2.1040   -2.3750 oh        1 MOL     -0.812891
    181 H86        -0.5320    2.9090   -2.3210 ho        1 MOL      0.410524
    182 H87        -0.6530    1.4360   -2.6420 ho        1 MOL      0.410524
@<TRIPOS>BOND
     1    1    2 1   
     2    1    4 1   
     3    1    5 1   
     4    1    6 1   
     5    2    3 2   
     6    2    7 1   
     7    7    8 1   
     8    7   15 1   
     9    8    9 1   
    10    8   11 1   
    11    8   16 1   
    12    9   10 2   
    13    9   19 1   
    14   11   12 1   
    15   11   17 1   
    16   11   18 1   
    17   12   13 1   
    18   12   14 1   
    19   19   20 1   
    20   19   28 1   
    21   20   21 1   
    22   20   23 1   
    23   20   29 1   
    24   21   22 2   
    25   21   41 1   
    26   23   24 1   
    27   23   30 1   
    28   23   31 1   
    29   24   25 1   
    30   24   32 1   
    31   24   33 1   
    32   25   26 1   
    33   25   34 1   
    34   25   35 1   
    35   26   27 1   
    36   26   36 1   
    37   26   37 1   
    38   27   38 1   
    39   27   39 1   
    40   27   40 1   
    41   41   42 1   
    42   41   49 1   
    43   42   43 1   
    44   42   45 1   
    45   42   50 1   
    46   43   44 2   
    47   43   53 1   
    48   45   46 1   
    49   45   51 1   
    50   45   52 1   
    51   46   47 1   
    52   46   48 1   
    53   53   54 1   
    54   53   57 1   
    55   54   55 1   
    56   54   58 1   
    57   54   59 1   
    58   55   56 2   
    59   55   60 1   
    60   60   61 1   
    61   60   68 1   
    62   61   62 1   
    63   61   64 1   
    64   61   69 1   
    65   62   63 2   
    66   62   74 1   
    67   64   65 1   
    68   64   70 1   
    69   64   71 1   
    70   65   66 1   
    71   65   67 2   
    72   66   72 1   
    73   66   73 1   
    74   74   75 1   
    75   74   78 1   
    76   75   76 1   
    77   75   79 1   
    78   75   80 1   
    79   76   77 2   
    80   76   81 1   
    81   81   82 1   
    82   81   93 1   
    83   82   83 1   
    84   82   85 1   
    85   82   94 1   
    86   83   84 2   
    87   83  102 1   
    88   85   86 1   
    89   85   95 1   
    90   85   96 1   
    91   86   87 ar  
    92   86   88 ar  
    93   87   89 ar  
    94   87   97 1   
    95   88   90 ar  
    96   88   98 1   
    97   89   91 ar  
    98   89   99 1   
    99   90   91 ar  
   100   90  100 1   
   101   91   92 1   
   102   92  101 1   
   103  102  103 1   
   104  102  110 1   
   105  103  104 1   
   106  103  106 1   
   107  103  111 1   
   108  104  105 2   
   109  104  121 1   
   110  106  107 1   
   111  106  108 1   
   112  106  112 1   
   113  107  109 1   
   114  107  113 1   
   115  107  114 1   
   116  108  115 1   
   117  108  116 1   
   118  108  117 1   
   119  109  118 1   
   120  109  119 1   
   121  109  120 1   
   122  121  122 1   
   123  121  127 1   
   124  122  123 1   
   125  122  125 1   
   126  122  128 1   
   127  123  124 2   
   128  123  132 1   
   129  125  126 1   
   130  125  129 1   
   131  125  130 1   
   132  126  131 1   
   133  132  133 1   
   134  132  137 1   
   135  133  134 1   
   136  133  136 1   
   137  133  138 1   
   138  134  135 2   
   139  134  142 1   
   140  136  139 1   
   141  136  140 1   
   142  136  141 1   
   143  142  143 1   
   144  142  147 1   
   145  143  144 1   
   146  143  146 1   
   147  143  148 1   
   148  144  145 2   
   149  144  152 1   
   150  146  149 1   
   151  146  150 1   
   152  146  151 1   
   153  152  153 1   
   154  152  161 1   
   155  153  154 1   
   156  153  156 1   
   157  153  162 1   
   158  154  155 2   
   159  154  167 1   
   160  156  157 1   
   161  156  163 1   
   162  156  164 1   
   163  157  158 1   
   164  157  165 1   
   165  157  166 1   
   166  158  159 1   
   167  158  160 1   
   168  167  168 1   
   169  167  172 1   
   170  168  169 1   
   171  168  170 1   
   172  168  171 1   
   173  174  176 1   
   174  174  178 1   
   175  175  177 1   
   176  175  179 1   
   177  180  181 1   
   178  180  182 1   
@<TRIPOS>SUBSTRUCTURE
     1 MOL         1 TEMP              0 ****  ****    0 ROOT
