@<TRIPOS>MOLECULE
MOL
  179   176     1     0     0
SMALL
resp


@<TRIPOS>ATOM
      1 C1          2.0510    2.1080    5.9460 c3        1 MOL     -0.278244
      2 C2          1.3820    1.9250    4.5970 c         1 MOL      0.751470
      3 O1          2.1690    1.9870    3.6090 o         1 MOL     -0.631417
      4 H1          1.3790    1.7680    6.7340 hc        1 MOL      0.068121
      5 H2          2.9720    1.5260    5.9780 hc        1 MOL      0.068121
      6 H3          2.2820    3.1630    6.0970 hc        1 MOL      0.068121
      7 N1          0.0820    1.6420    4.4540 n         1 MOL     -0.582155
      8 C3         -0.5560    1.6190    3.0940 c3        1 MOL      0.115479
      9 C4         -0.6790    3.0760    2.5290 c         1 MOL      0.522367
     10 O2         -1.0900    3.9770    3.2530 o         1 MOL     -0.562889
     11 C5         -1.8730    0.8080    3.1900 c3        1 MOL     -0.089765
     12 C6         -2.8200    1.1460    1.9930 c         1 MOL      0.636336
     13 O3         -4.0560    1.1640    2.1970 o         1 MOL     -0.619461
     14 O4         -2.2950    1.3250    0.8700 o         1 MOL     -0.619461
     15 H4         -0.5480    1.5290    5.2370 hn        1 MOL      0.336112
     16 H5          0.0160    1.0280    2.3740 h1        1 MOL     -0.013274
     17 H6         -2.4270    1.0720    4.0930 hc        1 MOL      0.005618
     18 H7         -1.6070   -0.2450    3.1360 hc        1 MOL      0.005618
     19 N2          0.0280    3.3480    1.4550 n         1 MOL     -0.223518
     20 C7          0.4310    4.6270    0.8510 c3        1 MOL     -0.082548
     21 C8         -0.6900    5.3330    0.0070 c         1 MOL      0.504366
     22 O5         -0.6390    6.5760   -0.0100 o         1 MOL     -0.557265
     23 C9          1.7850    4.4370    0.2000 c3        1 MOL     -0.055743
     24 C10         2.5850    5.7230    0.0970 c3        1 MOL     -0.070049
     25 C11         3.8060    5.4200   -0.7120 c3        1 MOL     -0.126962
     26 C12         4.6490    6.7010   -1.0290 c3        1 MOL      0.126139
     27 N3          5.7470    6.6320   -2.0460 n4        1 MOL     -0.444384
     28 H8          0.4510    2.5170    1.0560 hn        1 MOL      0.187193
     29 H9          0.5730    5.3310    1.6730 h1        1 MOL      0.099600
     30 H10         1.6410    4.0110   -0.7860 hc        1 MOL      0.108241
     31 H11         2.3990    3.7170    0.7370 hc        1 MOL      0.108241
     32 H12         2.9060    6.1660    1.0320 hc        1 MOL      0.050632
     33 H13         1.9560    6.4840   -0.3680 hc        1 MOL      0.050632
     34 H14         3.5170    4.9150   -1.6410 hc        1 MOL      0.066933
     35 H15         4.4430    4.8180   -0.0680 hc        1 MOL      0.066933
     36 H16         5.0980    7.1070   -0.1260 hx        1 MOL      0.064282
     37 H17         3.9110    7.4550   -1.3010 hx        1 MOL      0.064282
     38 H18         6.5310    6.0980   -1.7080 hn        1 MOL      0.347793
     39 H19         5.4520    6.1340   -2.8680 hn        1 MOL      0.347793
     40 H20         6.0840    7.5670   -2.2270 hn        1 MOL      0.347793
     41 N4         -1.7120    4.6080   -0.5070 n         1 MOL     -0.229629
     42 C13        -2.7780    5.1580   -1.3440 c3        1 MOL      0.041916
     43 C14        -4.2020    4.8460   -0.7330 c         1 MOL      0.459350
     44 O6         -5.2270    5.2490   -1.2840 o         1 MOL     -0.500632
     45 C15        -2.6890    4.6880   -2.8160 c3        1 MOL     -0.247064
     46 C16        -2.7890    3.1520   -3.0320 c         1 MOL      0.829589
     47 O7         -3.1310    2.7160   -4.1510 o         1 MOL     -0.720167
     48 O8         -2.4890    2.3910   -2.0800 o         1 MOL     -0.720167
     49 H21        -1.7740    3.6150   -0.3210 hn        1 MOL      0.022941
     50 H22        -2.6820    6.2380   -1.4200 h1        1 MOL      0.091940
     51 H23        -1.7180    5.0540   -3.1640 hc        1 MOL      0.063872
     52 H24        -3.5480    5.1030   -3.3560 hc        1 MOL      0.063872
     53 N5         -4.2580    4.1480    0.4160 n         1 MOL     -0.361607
     54 C17        -5.5980    3.9630    1.0210 c3        1 MOL     -0.149933
     55 C18        -6.5210    2.9170    0.3680 c         1 MOL      0.505962
     56 O9         -7.7220    2.9660    0.4980 o         1 MOL     -0.546074
     57 H25        -3.4710    3.6760    0.8360 hn        1 MOL      0.291065
     58 H26        -6.1570    4.8990    0.9820 h1        1 MOL      0.115407
     59 H27        -5.4970    3.6610    2.0610 h1        1 MOL      0.115407
     60 N6         -5.9080    1.8730   -0.2570 n         1 MOL     -0.173555
     61 C19        -6.5830    0.8080   -1.0470 c3        1 MOL     -0.027144
     62 C20        -6.6590   -0.5390   -0.2210 c         1 MOL      0.286598
     63 O10        -7.5060   -1.3970   -0.5590 o         1 MOL     -0.501138
     64 C21        -5.9550    0.6320   -2.4420 c3        1 MOL     -0.024702
     65 C22        -4.8190   -0.3610   -2.5650 c         1 MOL      0.715324
     66 N7         -4.8400   -1.1670   -3.6340 n         1 MOL     -0.837223
     67 O11        -4.0280   -0.5660   -1.6590 o         1 MOL     -0.748327
     68 H28        -4.9090    1.8020   -0.2000 hn        1 MOL      0.136458
     69 H29        -7.6430    1.0560   -1.1520 h1        1 MOL      0.108642
     70 H30        -5.4990    1.5790   -2.7490 hc        1 MOL      0.036138
     71 H31        -6.7450    0.4270   -3.1700 hc        1 MOL      0.036138
     72 H32        -5.7010   -1.2460   -4.1690 hn        1 MOL      0.386306
     73 H33        -4.0060   -1.6980   -3.8050 hn        1 MOL      0.386306
     74 N8         -5.9260   -0.6380    0.8450 n         1 MOL      0.128128
     75 C23        -6.1780   -1.6780    1.9410 c3        1 MOL     -0.392929
     76 C24        -5.0670   -2.7780    1.8380 c         1 MOL      0.776848
     77 O12        -5.1550   -3.8040    2.4610 o         1 MOL     -0.586704
     78 H34        -5.2220    0.0270    1.1200 hn        1 MOL      0.020235
     79 H35        -7.1470   -2.1050    1.6810 h1        1 MOL      0.156527
     80 H36        -6.2340   -1.2200    2.9240 h1        1 MOL      0.156527
     81 N9         -3.9670   -2.5200    1.0940 n         1 MOL     -0.660452
     82 C25        -2.7800   -3.4360    0.8790 c3        1 MOL      0.263951
     83 C26        -1.4520   -2.7510    0.8220 c         1 MOL      0.486854
     84 O13        -1.4120   -1.6690    0.3300 o         1 MOL     -0.554140
     85 C27        -3.0160   -4.3530   -0.3560 c3        1 MOL     -0.078484
     86 C28        -4.4240   -4.8330   -0.5700 ca        1 MOL     -0.227621
     87 C29        -4.8220   -6.1200   -0.0390 ca        1 MOL      0.028918
     88 C30        -5.3930   -4.0800   -1.2740 ca        1 MOL      0.028918
     89 C31        -6.1670   -6.6290   -0.1890 ca        1 MOL     -0.389730
     90 C32        -6.7110   -4.6100   -1.3770 ca        1 MOL     -0.389730
     91 C33        -7.0830   -5.8140   -0.8380 ca        1 MOL      0.485024
     92 O14        -8.3740   -6.1740   -1.1200 oh        1 MOL     -0.513341
     93 H37        -4.1440   -1.7150    0.5130 hn        1 MOL      0.369377
     94 H38        -2.7270   -4.0890    1.7460 h1        1 MOL      0.035950
     95 H39        -2.3380   -5.1990   -0.2990 hc        1 MOL      0.060395
     96 H40        -2.7760   -3.8020   -1.2660 hc        1 MOL      0.060395
     97 H41        -4.1060   -6.8040    0.3820 ha        1 MOL      0.092567
     98 H42        -5.0840   -3.1120   -1.6170 ha        1 MOL      0.092567
     99 H43        -6.4640   -7.6010    0.1810 ha        1 MOL      0.164821
    100 H44        -7.4890   -4.0030   -1.8310 ha        1 MOL      0.164821
    101 H45        -8.5760   -7.0650   -0.8150 ho        1 MOL      0.359043
    102 N10        -0.3800   -3.3810    1.2220 n         1 MOL     -0.500350
    103 C34         1.0140   -2.9760    1.2990 c3        1 MOL      0.110660
    104 C35         1.8540   -3.9530    0.5060 c         1 MOL      0.545865
    105 O15         1.5610   -5.1260    0.4510 o         1 MOL     -0.552901
    106 C36         1.4480   -3.1390    2.7690 c3        1 MOL      0.001604
    107 C37         0.6350   -2.2250    3.6430 c3        1 MOL      0.184765
    108 C38         3.0090   -2.9670    2.9910 c3        1 MOL     -0.145743
    109 C39         1.1730   -2.1570    5.0760 c3        1 MOL     -0.335134
    110 H46        -0.5800   -4.2200    1.7330 hn        1 MOL      0.269695
    111 H47         1.0540   -1.9800    0.8740 h1        1 MOL      0.077893
    112 H48         1.2040   -4.1750    3.0230 hc        1 MOL      0.036766
    113 H49        -0.3670   -2.6400    3.7520 hc        1 MOL     -0.007646
    114 H50         0.5800   -1.2240    3.2170 hc        1 MOL     -0.007646
    115 H51         3.5380   -3.6180    2.3060 hc        1 MOL      0.028916
    116 H52         3.3220   -1.9590    2.7250 hc        1 MOL      0.028916
    117 H53         3.3130   -3.1520    4.0160 hc        1 MOL      0.028916
    118 H54         1.9810   -1.4260    5.1070 hc        1 MOL      0.076942
    119 H55         0.4630   -1.6210    5.7070 hc        1 MOL      0.076942
    120 H56         1.5970   -3.0950    5.4410 hc        1 MOL      0.076942
    121 N11         2.8310   -3.3100   -0.0910 n         1 MOL     -0.299644
    122 C40         3.8350   -3.9340   -0.9560 c3        1 MOL      0.129940
    123 C41         5.3290   -3.6640   -0.4890 c         1 MOL      0.418922
    124 O16         5.5460   -2.8990    0.3870 o         1 MOL     -0.362761
    125 C42         3.6090   -3.3900   -2.3800 c3        1 MOL     -0.281759
    126 O17         4.0150   -1.9980   -2.4550 oh        1 MOL     -0.483265
    127 H57         2.9970   -2.3610    0.1890 hn        1 MOL      0.224850
    128 H58         3.6630   -5.0050   -1.0290 h1        1 MOL      0.059326
    129 H59         2.5320   -3.4510   -2.5700 h1        1 MOL      0.143061
    130 H60         4.1920   -3.9940   -3.0700 h1        1 MOL      0.143061
    131 H61         3.6580   -1.5980   -3.2510 ho        1 MOL      0.407175
    132 N12         6.3310   -4.2850   -1.1350 n         1 MOL     -0.521912
    133 C43         7.7920   -4.1510   -0.8070 c3        1 MOL      0.280854
    134 C44         8.2700   -2.6860   -1.0620 c         1 MOL      0.363755
    135 O18         9.0650   -2.1930   -0.2140 o         1 MOL     -0.491600
    136 C45         8.7490   -5.1350   -1.3910 c3        1 MOL     -0.345807
    137 H62         6.1030   -4.9600   -1.8630 hn        1 MOL      0.298504
    138 H63         7.8070   -4.2090    0.2780 h1        1 MOL      0.042660
    139 H64         8.7370   -4.9200   -2.4630 hc        1 MOL      0.104709
    140 H65         9.6810   -4.8730   -0.8910 hc        1 MOL      0.104709
    141 H66         8.4780   -6.1630   -1.1500 hc        1 MOL      0.104709
    142 N13         7.7540   -2.0300   -2.1170 n         1 MOL     -0.324899
    143 C46         8.0030   -0.6270   -2.3490 c3        1 MOL      0.121678
    144 C47         7.2670    0.3330   -1.3940 c         1 MOL      0.329893
    145 O19         7.8720    1.3790   -1.1060 o         1 MOL     -0.521322
    146 C48         7.5040   -0.4380   -3.8170 c3        1 MOL     -0.308671
    147 H67         7.0490   -2.4980   -2.6770 hn        1 MOL      0.241976
    148 H68         9.0590   -0.3980   -2.2340 h1        1 MOL      0.101673
    149 H69         8.1070   -1.1000   -4.4400 hc        1 MOL      0.085350
    150 H70         6.4370   -0.5930   -3.9660 hc        1 MOL      0.085350
    151 H71         7.6660    0.5860   -4.1390 hc        1 MOL      0.085350
    152 N14         6.0220    0.1280   -0.9690 n         1 MOL     -0.030651
    153 C49         5.2820    1.1010   -0.1290 c3        1 MOL     -0.006844
    154 C50         5.8330    1.0140    1.3070 c         1 MOL      0.461102
    155 O20         6.0650    2.0390    1.9080 o         1 MOL     -0.535879
    156 C51         3.8140    0.8050   -0.1190 c3        1 MOL      0.002917
    157 C52         3.0690    1.3270   -1.3930 c3        1 MOL     -0.019323
    158 C53         1.5200    1.2570   -1.1670 c         1 MOL      0.739805
    159 O21         0.9330    0.7190   -0.1750 o         1 MOL     -0.771489
    160 O22         0.8860    1.6040   -2.1670 o         1 MOL     -0.771489
    161 H72         5.4440   -0.5930   -1.3920 hn        1 MOL      0.071705
    162 H73         5.4470    2.1710   -0.3100 h1        1 MOL      0.009704
    163 H74         3.3040    1.3040    0.7030 hc        1 MOL      0.010583
    164 H75         3.7370   -0.2730    0.0520 hc        1 MOL      0.010583
    165 H76         3.3910    0.8260   -2.3140 hc        1 MOL     -0.024363
    166 H77         3.3940    2.3640   -1.5410 hc        1 MOL     -0.024363
    167 N15         6.0870   -0.1440    1.9030 n         1 MOL     -0.103934
    168 C54         6.7790   -0.3000    3.1780 c3        1 MOL     -0.263714
    169 H78         6.0560   -0.5460    3.9560 h1        1 MOL      0.112535
    170 H79         7.5120   -1.1040    3.0980 h1        1 MOL      0.112535
    171 H80         7.2860    0.6300    3.4340 h1        1 MOL      0.112535
    172 H81         6.0530   -0.9920    1.3570 hn        1 MOL      0.118241
    173 Ca1        -1.4150    0.2460   -1.3380 Ca        1 MOL      1.775871
    174 O23        -0.1210   -1.9060   -2.3260 oh        1 MOL     -0.872098
    175 H82        -0.2480   -2.8010   -2.6290 ho        1 MOL      0.405294
    176 H83         0.6440   -1.5910   -2.8090 ho        1 MOL      0.405294
    177 O24        -2.0210    0.3940   -3.8960 oh        1 MOL     -0.872098
    178 H84        -1.8730   -0.0170   -4.7500 ho        1 MOL      0.405294
    179 H85        -2.5540    1.1650   -4.0890 ho        1 MOL      0.405294
@<TRIPOS>BOND
     1    1    2 1   
     2    1    4 1   
     3    1    5 1   
     4    1    6 1   
     5    2    3 2   
     6    2    7 1   
     7    7    8 1   
     8    7   15 1   
     9    8    9 1   
    10    8   11 1   
    11    8   16 1   
    12    9   10 2   
    13    9   19 1   
    14   11   12 1   
    15   11   17 1   
    16   11   18 1   
    17   12   13 1   
    18   12   14 1   
    19   19   20 1   
    20   19   28 1   
    21   20   21 1   
    22   20   23 1   
    23   20   29 1   
    24   21   22 2   
    25   21   41 1   
    26   23   24 1   
    27   23   30 1   
    28   23   31 1   
    29   24   25 1   
    30   24   32 1   
    31   24   33 1   
    32   25   26 1   
    33   25   34 1   
    34   25   35 1   
    35   26   27 1   
    36   26   36 1   
    37   26   37 1   
    38   27   38 1   
    39   27   39 1   
    40   27   40 1   
    41   41   42 1   
    42   41   49 1   
    43   42   43 1   
    44   42   45 1   
    45   42   50 1   
    46   43   44 2   
    47   43   53 1   
    48   45   46 1   
    49   45   51 1   
    50   45   52 1   
    51   46   47 1   
    52   46   48 1   
    53   53   54 1   
    54   53   57 1   
    55   54   55 1   
    56   54   58 1   
    57   54   59 1   
    58   55   56 2   
    59   55   60 1   
    60   60   61 1   
    61   60   68 1   
    62   61   62 1   
    63   61   64 1   
    64   61   69 1   
    65   62   63 2   
    66   62   74 1   
    67   64   65 1   
    68   64   70 1   
    69   64   71 1   
    70   65   66 1   
    71   65   67 2   
    72   66   72 1   
    73   66   73 1   
    74   74   75 1   
    75   74   78 1   
    76   75   76 1   
    77   75   79 1   
    78   75   80 1   
    79   76   77 2   
    80   76   81 1   
    81   81   82 1   
    82   81   93 1   
    83   82   83 1   
    84   82   85 1   
    85   82   94 1   
    86   83   84 2   
    87   83  102 1   
    88   85   86 1   
    89   85   95 1   
    90   85   96 1   
    91   86   87 ar  
    92   86   88 ar  
    93   87   89 ar  
    94   87   97 1   
    95   88   90 ar  
    96   88   98 1   
    97   89   91 ar  
    98   89   99 1   
    99   90   91 ar  
   100   90  100 1   
   101   91   92 1   
   102   92  101 1   
   103  102  103 1   
   104  102  110 1   
   105  103  104 1   
   106  103  106 1   
   107  103  111 1   
   108  104  105 2   
   109  104  121 1   
   110  106  107 1   
   111  106  108 1   
   112  106  112 1   
   113  107  109 1   
   114  107  113 1   
   115  107  114 1   
   116  108  115 1   
   117  108  116 1   
   118  108  117 1   
   119  109  118 1   
   120  109  119 1   
   121  109  120 1   
   122  121  122 1   
   123  121  127 1   
   124  122  123 1   
   125  122  125 1   
   126  122  128 1   
   127  123  124 2   
   128  123  132 1   
   129  125  126 1   
   130  125  129 1   
   131  125  130 1   
   132  126  131 1   
   133  132  133 1   
   134  132  137 1   
   135  133  134 1   
   136  133  136 1   
   137  133  138 1   
   138  134  135 2   
   139  134  142 1   
   140  136  139 1   
   141  136  140 1   
   142  136  141 1   
   143  142  143 1   
   144  142  147 1   
   145  143  144 1   
   146  143  146 1   
   147  143  148 1   
   148  144  145 2   
   149  144  152 1   
   150  146  149 1   
   151  146  150 1   
   152  146  151 1   
   153  152  153 1   
   154  152  161 1   
   155  153  154 1   
   156  153  156 1   
   157  153  162 1   
   158  154  155 2   
   159  154  167 1   
   160  156  157 1   
   161  156  163 1   
   162  156  164 1   
   163  157  158 1   
   164  157  165 1   
   165  157  166 1   
   166  158  159 1   
   167  158  160 1   
   168  167  168 1   
   169  167  172 1   
   170  168  169 1   
   171  168  170 1   
   172  168  171 1   
   173  174  175 1   
   174  174  176 1   
   175  177  178 1   
   176  177  179 1   
@<TRIPOS>SUBSTRUCTURE
     1 MOL         1 TEMP              0 ****  ****    0 ROOT
