@<TRIPOS>MOLECULE
MOL
  179   176     1     0     0
SMALL
resp


@<TRIPOS>ATOM
      1 C1          0.9200    4.0730    4.8940 c3        1 MOL     -0.340685
      2 C2          0.2910    3.5110    3.5190 c         1 MOL      0.650011
      3 O1          1.0360    3.6820    2.5340 o         1 MOL     -0.554600
      4 H1          0.1760    4.6790    5.4120 hc        1 MOL      0.084137
      5 H2          1.2120    3.2360    5.5290 hc        1 MOL      0.084137
      6 H3          1.7940    4.6840    4.6710 hc        1 MOL      0.084137
      7 N1         -0.9620    3.1600    3.4100 n         1 MOL     -0.684803
      8 C3         -1.5840    2.8140    2.1080 c3        1 MOL      0.157488
      9 C4         -2.1670    4.0420    1.4990 c         1 MOL      0.415767
     10 O2         -3.3470    4.3720    1.7210 o         1 MOL     -0.535976
     11 C5         -2.7230    1.7330    2.2860 c3        1 MOL     -0.031400
     12 C6         -3.2650    1.2290    0.9040 c         1 MOL      0.540874
     13 O3         -2.6060    1.3790   -0.1510 o         1 MOL     -0.646618
     14 O4         -4.2710    0.4880    0.8670 o         1 MOL     -0.646618
     15 H4         -1.5720    3.3050    4.1990 hn        1 MOL      0.384435
     16 H5         -0.8670    2.4350    1.3810 h1        1 MOL      0.055291
     17 H6         -3.4080    2.0130    3.0870 hc        1 MOL      0.029881
     18 H7         -2.2370    0.8410    2.6920 hc        1 MOL      0.029881
     19 N2         -1.3500    4.6740    0.7300 n         1 MOL     -0.313858
     20 C7         -1.6640    5.9690    0.2220 c3        1 MOL      0.020016
     21 C8         -2.2290    5.8600   -1.2100 c         1 MOL      0.480268
     22 O5         -2.6900    6.8350   -1.7210 o         1 MOL     -0.551535
     23 C9         -0.5010    6.9330    0.3170 c3        1 MOL     -0.117071
     24 C10        -0.0100    7.2330    1.7950 c3        1 MOL      0.035122
     25 C11         0.8360    8.4820    1.7760 c3        1 MOL      0.082992
     26 C12         1.4480    8.7550    3.1470 c3        1 MOL      0.025619
     27 N3          2.4680    9.7840    3.1570 n4        1 MOL     -0.283552
     28 H8         -0.3640    4.4450    0.7230 hn        1 MOL      0.336173
     29 H9         -2.4760    6.4450    0.7550 h1        1 MOL      0.114263
     30 H10        -0.8960    7.8750   -0.0610 hc        1 MOL      0.047952
     31 H11         0.3630    6.5810   -0.2420 hc        1 MOL      0.047952
     32 H12         0.6320    6.4620    2.2090 hc        1 MOL      0.011742
     33 H13        -0.8810    7.4370    2.4160 hc        1 MOL      0.011742
     34 H14         0.0730    9.2330    1.5500 hc        1 MOL     -0.002743
     35 H15         1.5730    8.6220    0.9830 hc        1 MOL     -0.002743
     36 H16         1.8170    7.8290    3.5740 hx        1 MOL      0.066614
     37 H17         0.5950    9.0260    3.7750 hx        1 MOL      0.066614
     38 H18         2.3410   10.6070    2.5850 hn        1 MOL      0.311291
     39 H19         2.5540   10.1880    4.0710 hn        1 MOL      0.311291
     40 H20         3.3720    9.4140    2.8770 hn        1 MOL      0.311291
     41 N4         -2.5610    4.6440   -1.6510 n         1 MOL     -0.231175
     42 C13        -3.4310    4.3390   -2.8070 c3        1 MOL      0.104348
     43 C14        -4.7110    3.6060   -2.4730 c         1 MOL      0.314246
     44 O6         -5.6850    3.6440   -3.2190 o         1 MOL     -0.529593
     45 C15        -2.6600    3.5600   -3.8780 c3        1 MOL     -0.267132
     46 C16        -2.1220    2.1710   -3.3890 c         1 MOL      0.759507
     47 O7         -2.9350    1.2000   -3.2150 o         1 MOL     -0.717568
     48 O8         -0.9380    2.0550   -2.9850 o         1 MOL     -0.717568
     49 H21        -2.1890    3.8550   -1.1330 hn        1 MOL      0.103854
     50 H22        -3.6990    5.2630   -3.3280 h1        1 MOL      0.104356
     51 H23        -1.7970    4.1110   -4.2410 hc        1 MOL      0.064177
     52 H24        -3.1960    3.3230   -4.7900 hc        1 MOL      0.064177
     53 N5         -4.8260    3.0900   -1.2850 n         1 MOL      0.082095
     54 C17        -6.1010    2.7660   -0.6250 c3        1 MOL     -0.105994
     55 C18        -6.7290    1.4790   -1.0480 c         1 MOL      0.458295
     56 O9         -7.9630    1.3630   -1.2500 o         1 MOL     -0.564028
     57 H25        -3.9600    3.1350   -0.7700 hn        1 MOL     -0.015599
     58 H26        -6.7900    3.6130   -0.6790 h1        1 MOL      0.090169
     59 H27        -5.9460    2.6540    0.4410 h1        1 MOL      0.090169
     60 N6         -5.8820    0.3970   -1.2230 n         1 MOL     -0.043264
     61 C19        -6.2870   -0.9230   -1.7380 c3        1 MOL     -0.273209
     62 C20        -6.3430   -2.0870   -0.6600 c         1 MOL      0.362022
     63 O10        -6.7340   -3.2280   -0.9620 o         1 MOL     -0.480238
     64 C21        -5.2860   -1.1660   -2.8780 c3        1 MOL      0.080573
     65 C22        -4.0960   -1.8660   -2.3880 c         1 MOL      0.460806
     66 N7         -3.7710   -2.9630   -2.9490 n         1 MOL     -0.582651
     67 O11        -3.3290   -1.4340   -1.4890 o         1 MOL     -0.710349
     68 H28        -4.9310    0.5360   -0.9190 hn        1 MOL      0.048260
     69 H29        -7.2580   -0.8080   -2.2250 h1        1 MOL      0.186759
     70 H30        -4.8920   -0.2740   -3.3390 hc        1 MOL      0.042759
     71 H31        -5.7770   -1.7140   -3.6860 hc        1 MOL      0.042759
     72 H32        -4.2360   -3.2760   -3.7870 hn        1 MOL      0.311814
     73 H33        -2.9390   -3.4120   -2.6000 hn        1 MOL      0.311814
     74 N8         -6.0120   -1.7930    0.6220 n         1 MOL     -0.113978
     75 C23        -6.0580   -2.5520    1.8880 c3        1 MOL     -0.371426
     76 C24        -4.6430   -3.0460    2.3080 c         1 MOL      0.598788
     77 O12        -4.5930   -3.7580    3.3480 o         1 MOL     -0.550574
     78 H34        -5.5400   -0.9060    0.7190 hn        1 MOL      0.186750
     79 H35        -6.7260   -3.4130    1.8530 h1        1 MOL      0.178222
     80 H36        -6.3800   -1.8870    2.6730 h1        1 MOL      0.178222
     81 N9         -3.6240   -2.8550    1.4410 n         1 MOL     -0.574297
     82 C25        -2.3220   -3.4580    1.6010 c3        1 MOL      0.360214
     83 C26        -1.1090   -2.5350    1.2810 c         1 MOL      0.313124
     84 O13        -1.1800   -1.4990    0.5760 o         1 MOL     -0.488353
     85 C27        -2.3180   -4.6990    0.6930 c3        1 MOL     -0.116304
     86 C28        -3.2730   -5.7990    0.9890 ca        1 MOL      0.224887
     87 C29        -4.5810   -5.6830    0.6480 ca        1 MOL     -0.303824
     88 C30        -2.7900   -6.9370    1.6400 ca        1 MOL     -0.303824
     89 C31        -5.5380   -6.6660    0.9780 ca        1 MOL     -0.138479
     90 C32        -3.6760   -7.9350    1.9680 ca        1 MOL     -0.138479
     91 C33        -5.0410   -7.8720    1.6410 ca        1 MOL      0.254199
     92 O14        -5.8290   -8.8810    2.1340 oh        1 MOL     -0.481148
     93 H37        -3.7770   -2.3300    0.5920 hn        1 MOL      0.529247
     94 H38        -2.2710   -3.7200    2.6540 h1        1 MOL     -0.003785
     95 H39        -1.3120   -5.1010    0.6070 hc        1 MOL      0.008258
     96 H40        -2.5300   -4.2910   -0.3010 hc        1 MOL      0.008258
     97 H41        -4.8810   -4.8170    0.0870 ha        1 MOL      0.140186
     98 H42        -1.7570   -7.0060    1.9670 ha        1 MOL      0.140186
     99 H43        -6.5770   -6.5170    0.7300 ha        1 MOL      0.127341
    100 H44        -3.3120   -8.7150    2.6110 ha        1 MOL      0.127341
    101 H45        -5.4010   -9.3400    2.8620 ho        1 MOL      0.351980
    102 N10         0.1500   -2.8620    1.7310 n         1 MOL     -0.304621
    103 C34         1.4570   -2.2230    1.4260 c3        1 MOL     -0.266083
    104 C35         2.5390   -3.2860    1.0960 c         1 MOL      0.637054
    105 O15         2.7490   -4.1750    1.9500 o         1 MOL     -0.574213
    106 C36         2.0120   -1.2180    2.4730 c3        1 MOL      0.099351
    107 C37         2.2880   -1.8340    3.8960 c3        1 MOL      0.209951
    108 C38         1.0720   -0.0300    2.5780 c3        1 MOL      0.085719
    109 C39         2.9330   -0.8350    4.8410 c3        1 MOL     -0.362856
    110 H46         0.2110   -3.6620    2.3540 hn        1 MOL      0.250097
    111 H47         1.3350   -1.6720    0.4910 h1        1 MOL      0.092520
    112 H48         2.9360   -0.8960    2.0150 hc        1 MOL     -0.012959
    113 H49         3.0820   -2.5740    3.7430 hc        1 MOL     -0.024427
    114 H50         1.3970   -2.3070    4.3080 hc        1 MOL     -0.024427
    115 H51         0.2240   -0.2360    3.2340 hc        1 MOL     -0.010024
    116 H52         1.4960    0.8790    3.0000 hc        1 MOL     -0.010024
    117 H53         0.8130    0.2230    1.5460 hc        1 MOL     -0.010024
    118 H54         3.4590   -1.4860    5.5420 hc        1 MOL      0.081143
    119 H55         3.6530   -0.2480    4.2770 hc        1 MOL      0.081143
    120 H56         2.0860   -0.2830    5.2650 hc        1 MOL      0.081143
    121 N11         3.2530   -3.2290   -0.0590 n         1 MOL     -0.367544
    122 C40         4.5280   -3.9050   -0.2970 c3        1 MOL      0.021747
    123 C41         5.7030   -3.1710    0.3020 c         1 MOL      0.407759
    124 O16         5.6310   -2.0440    0.7980 o         1 MOL     -0.365274
    125 C42         4.6170   -4.0000   -1.8120 c3        1 MOL     -0.142999
    126 O17         4.6650   -2.6460   -2.2970 oh        1 MOL     -0.323757
    127 H57         3.0020   -2.4790   -0.6910 hn        1 MOL      0.187472
    128 H58         4.3550   -4.9400    0.0040 h1        1 MOL      0.098363
    129 H59         3.7540   -4.4780   -2.2930 h1        1 MOL      0.091898
    130 H60         5.5740   -4.4320   -2.0950 h1        1 MOL      0.091898
    131 H61         3.9320   -2.4860   -2.8940 ho        1 MOL      0.331069
    132 N12         6.8920   -3.8460    0.3050 n         1 MOL     -0.377170
    133 C43         8.1960   -3.2230    0.4530 c3        1 MOL      0.053875
    134 C44         8.5560   -2.0740   -0.5190 c         1 MOL      0.574445
    135 O18         9.1960   -1.1510   -0.1420 o         1 MOL     -0.508331
    136 C45         9.2480   -4.2610    0.3290 c3        1 MOL     -0.185132
    137 H62         6.9120   -4.8290    0.0610 hn        1 MOL      0.268485
    138 H63         8.2730   -2.9530    1.5100 h1        1 MOL      0.096979
    139 H64         9.0660   -4.6940   -0.6520 hc        1 MOL      0.054762
    140 H65        10.2500   -3.8240    0.2810 hc        1 MOL      0.054762
    141 H66         9.1310   -5.0270    1.0940 hc        1 MOL      0.054762
    142 N13         8.0430   -2.0690   -1.7830 n         1 MOL     -0.475652
    143 C46         8.2980   -0.9390   -2.6970 c3        1 MOL      0.067051
    144 C47         7.6030    0.3760   -2.3070 c         1 MOL      0.428074
    145 O19         8.1930    1.4440   -2.5490 o         1 MOL     -0.520570
    146 C48         7.7890   -1.3690   -4.1180 c3        1 MOL     -0.168906
    147 H67         7.5720   -2.8820   -2.1290 hn        1 MOL      0.316612
    148 H68         9.3290   -0.6550   -2.9180 h1        1 MOL      0.094831
    149 H69         8.0390   -0.6190   -4.8680 hc        1 MOL      0.043655
    150 H70         8.2690   -2.2830   -4.4580 hc        1 MOL      0.043655
    151 H71         6.7460   -1.6900   -4.0320 hc        1 MOL      0.043655
    152 N14         6.3930    0.3110   -1.6800 n         1 MOL     -0.099419
    153 C49         5.6140    1.5560   -1.3540 c3        1 MOL     -0.137509
    154 C50         5.8060    1.9740    0.1090 c         1 MOL      0.454347
    155 O20         5.5740    3.1460    0.4340 o         1 MOL     -0.546314
    156 C51         4.1470    1.3910   -1.7960 c3        1 MOL      0.145087
    157 C52         3.4200    0.3340   -0.9300 c3        1 MOL     -0.053167
    158 C53         1.9280    0.3370   -1.3420 c         1 MOL      0.735421
    159 O21         1.4660   -0.4760   -2.1880 o         1 MOL     -0.744322
    160 O22         1.1510    1.2190   -0.8690 o         1 MOL     -0.744322
    161 H72         5.9860   -0.5840   -1.4400 hn        1 MOL     -0.008895
    162 H73         6.0300    2.2410   -2.0850 h1        1 MOL      0.117637
    163 H74         4.1390    1.0200   -2.8240 hc        1 MOL     -0.014119
    164 H75         3.6880    2.3800   -1.8020 hc        1 MOL     -0.014119
    165 H76         3.6320    0.6460    0.0910 hc        1 MOL      0.000188
    166 H77         3.7900   -0.6600   -1.2010 hc        1 MOL      0.000188
    167 N15         6.3470    1.0970    0.9510 n         1 MOL     -0.093957
    168 C54         6.7730    1.3870    2.3850 c3        1 MOL     -0.183785
    169 H78         7.3400    0.5400    2.7730 h1        1 MOL      0.091597
    170 H79         7.3970    2.2800    2.4060 h1        1 MOL      0.091597
    171 H80         5.8890    1.5450    3.0030 h1        1 MOL      0.091597
    172 H81         6.4630    0.1660    0.5850 hn        1 MOL      0.091423
    173 Ca1        -1.0980   -0.1430   -1.6460 Ca        1 MOL      1.765014
    174 O23        -0.5390   -2.7440   -2.1720 oh        1 MOL     -0.800124
    175 H82        -0.0570   -3.4400   -1.7170 ho        1 MOL      0.393761
    176 H83        -0.6660   -3.0800   -3.0640 ho        1 MOL      0.393761
    177 O24        -0.9090   -0.8550   -4.2200 oh        1 MOL     -0.800124
    178 H84        -0.5570   -0.4000   -4.9930 ho        1 MOL      0.393761
    179 H85        -1.1220   -1.7310   -4.5340 ho        1 MOL      0.393761
@<TRIPOS>BOND
     1    1    2 1   
     2    1    4 1   
     3    1    5 1   
     4    1    6 1   
     5    2    3 2   
     6    2    7 1   
     7    7    8 1   
     8    7   15 1   
     9    8    9 1   
    10    8   11 1   
    11    8   16 1   
    12    9   10 2   
    13    9   19 1   
    14   11   12 1   
    15   11   17 1   
    16   11   18 1   
    17   12   13 1   
    18   12   14 1   
    19   19   20 1   
    20   19   28 1   
    21   20   21 1   
    22   20   23 1   
    23   20   29 1   
    24   21   22 2   
    25   21   41 1   
    26   23   24 1   
    27   23   30 1   
    28   23   31 1   
    29   24   25 1   
    30   24   32 1   
    31   24   33 1   
    32   25   26 1   
    33   25   34 1   
    34   25   35 1   
    35   26   27 1   
    36   26   36 1   
    37   26   37 1   
    38   27   38 1   
    39   27   39 1   
    40   27   40 1   
    41   41   42 1   
    42   41   49 1   
    43   42   43 1   
    44   42   45 1   
    45   42   50 1   
    46   43   44 2   
    47   43   53 1   
    48   45   46 1   
    49   45   51 1   
    50   45   52 1   
    51   46   47 1   
    52   46   48 1   
    53   53   54 1   
    54   53   57 1   
    55   54   55 1   
    56   54   58 1   
    57   54   59 1   
    58   55   56 2   
    59   55   60 1   
    60   60   61 1   
    61   60   68 1   
    62   61   62 1   
    63   61   64 1   
    64   61   69 1   
    65   62   63 2   
    66   62   74 1   
    67   64   65 1   
    68   64   70 1   
    69   64   71 1   
    70   65   66 1   
    71   65   67 2   
    72   66   72 1   
    73   66   73 1   
    74   74   75 1   
    75   74   78 1   
    76   75   76 1   
    77   75   79 1   
    78   75   80 1   
    79   76   77 2   
    80   76   81 1   
    81   81   82 1   
    82   81   93 1   
    83   82   83 1   
    84   82   85 1   
    85   82   94 1   
    86   83   84 2   
    87   83  102 1   
    88   85   86 1   
    89   85   95 1   
    90   85   96 1   
    91   86   87 ar  
    92   86   88 ar  
    93   87   89 ar  
    94   87   97 1   
    95   88   90 ar  
    96   88   98 1   
    97   89   91 ar  
    98   89   99 1   
    99   90   91 ar  
   100   90  100 1   
   101   91   92 1   
   102   92  101 1   
   103  102  103 1   
   104  102  110 1   
   105  103  104 1   
   106  103  106 1   
   107  103  111 1   
   108  104  105 2   
   109  104  121 1   
   110  106  107 1   
   111  106  108 1   
   112  106  112 1   
   113  107  109 1   
   114  107  113 1   
   115  107  114 1   
   116  108  115 1   
   117  108  116 1   
   118  108  117 1   
   119  109  118 1   
   120  109  119 1   
   121  109  120 1   
   122  121  122 1   
   123  121  127 1   
   124  122  123 1   
   125  122  125 1   
   126  122  128 1   
   127  123  124 2   
   128  123  132 1   
   129  125  126 1   
   130  125  129 1   
   131  125  130 1   
   132  126  131 1   
   133  132  133 1   
   134  132  137 1   
   135  133  134 1   
   136  133  136 1   
   137  133  138 1   
   138  134  135 2   
   139  134  142 1   
   140  136  139 1   
   141  136  140 1   
   142  136  141 1   
   143  142  143 1   
   144  142  147 1   
   145  143  144 1   
   146  143  146 1   
   147  143  148 1   
   148  144  145 2   
   149  144  152 1   
   150  146  149 1   
   151  146  150 1   
   152  146  151 1   
   153  152  153 1   
   154  152  161 1   
   155  153  154 1   
   156  153  156 1   
   157  153  162 1   
   158  154  155 2   
   159  154  167 1   
   160  156  157 1   
   161  156  163 1   
   162  156  164 1   
   163  157  158 1   
   164  157  165 1   
   165  157  166 1   
   166  158  159 1   
   167  158  160 1   
   168  167  168 1   
   169  167  172 1   
   170  168  169 1   
   171  168  170 1   
   172  168  171 1   
   173  174  175 1   
   174  174  176 1   
   175  177  178 1   
   176  177  179 1   
@<TRIPOS>SUBSTRUCTURE
     1 MOL         1 TEMP              0 ****  ****    0 ROOT
