@<TRIPOS>MOLECULE
MOL
  175   173     1     0     0
SMALL
resp


@<TRIPOS>ATOM
      1 C1          0.4920    4.6480    5.3200 c3        1 MOL     -0.320769
      2 C2         -0.1650    4.7050    3.9350 c         1 MOL      0.733607
      3 O1          0.4580    5.1830    3.0260 o         1 MOL     -0.529382
      4 H1          0.2410    5.5490    5.8790 hc        1 MOL      0.069926
      5 H2          0.1280    3.7740    5.8600 hc        1 MOL      0.069926
      6 H3          1.5740    4.5820    5.2070 hc        1 MOL      0.069926
      7 N1         -1.4860    4.3000    3.8790 n         1 MOL     -0.692955
      8 C3         -2.1180    3.8370    2.6120 c3        1 MOL      0.241719
      9 C4         -2.5510    5.0280    1.6890 c         1 MOL      0.621477
     10 O2         -2.7980    6.1480    2.1300 o         1 MOL     -0.580263
     11 C5         -3.2990    3.0620    3.0840 c3        1 MOL     -0.214552
     12 C6         -4.2540    2.5590    2.0320 c         1 MOL      0.621675
     13 O3         -5.4380    2.8880    1.9970 o         1 MOL     -0.617925
     14 O4         -3.7610    1.8460    1.1220 o         1 MOL     -0.617925
     15 H4         -1.9390    4.1260    4.7620 hn        1 MOL      0.335976
     16 H5         -1.4870    3.1570    2.0440 h1        1 MOL      0.025331
     17 H6         -3.8760    3.7490    3.7100 hc        1 MOL      0.017711
     18 H7         -2.9130    2.3150    3.7750 hc        1 MOL      0.017711
     19 N2         -2.5200    4.6400    0.4460 n         1 MOL     -0.623491
     20 C7         -2.6920    5.4650   -0.6700 c3        1 MOL      0.475421
     21 C8         -3.9200    5.0970   -1.6770 c         1 MOL      0.281211
     22 O5         -4.1650    5.8810   -2.5720 o         1 MOL     -0.511825
     23 C9         -1.3610    5.5460   -1.5140 c3        1 MOL     -0.237355
     24 H8         -2.3490    3.6580    0.2970 hn        1 MOL      0.292456
     25 H9         -2.8640    6.5000   -0.3950 h1        1 MOL     -0.032676
     26 H10        -1.3320    4.7270   -2.2280 hc        1 MOL      0.054650
     27 H11        -1.3200    6.4480   -2.1250 hc        1 MOL      0.054650
     28 H12        -0.4780    5.6200   -0.8690 hc        1 MOL      0.054650
     29 N3         -4.4920    3.8890   -1.4700 n         1 MOL     -0.205282
     30 C10        -5.2940    3.1870   -2.5010 c3        1 MOL     -0.019007
     31 C11        -6.2980    2.1200   -2.0580 c         1 MOL      0.376424
     32 O6         -7.1010    1.6110   -2.8170 o         1 MOL     -0.507166
     33 C12        -4.3990    2.4370   -3.5220 c3        1 MOL     -0.249678
     34 C13        -3.3540    1.5420   -2.8170 c         1 MOL      0.742539
     35 O7         -2.1990    1.5160   -3.3340 o         1 MOL     -0.683188
     36 O8         -3.6610    0.8730   -1.7970 o         1 MOL     -0.683188
     37 H13        -4.3790    3.4260   -0.5860 hn        1 MOL      0.190375
     38 H14        -5.7590    3.9740   -3.0980 h1        1 MOL      0.107133
     39 H15        -3.8680    3.3130   -3.8930 hc        1 MOL      0.075634
     40 H16        -4.9020    1.9550   -4.3570 hc        1 MOL      0.075634
     41 N4         -6.2250    1.6940   -0.7570 n         1 MOL     -0.258452
     42 C14        -7.1830    0.6950   -0.2530 c3        1 MOL      0.063888
     43 C15        -7.3620   -0.6540   -1.0290 c         1 MOL      0.386108
     44 O9         -8.4130   -1.2690   -1.0230 o         1 MOL     -0.557581
     45 H17        -5.4690    1.8610   -0.1140 hn        1 MOL      0.124478
     46 H18        -8.2080    1.0330   -0.0630 h1        1 MOL      0.027734
     47 H19        -6.8350    0.3830    0.7320 h1        1 MOL      0.027734
     48 N5         -6.3000   -1.0800   -1.7200 n         1 MOL     -0.124274
     49 C16        -6.0680   -2.4420   -2.1780 c3        1 MOL     -0.196899
     50 C17        -5.9930   -3.5820   -1.0740 c         1 MOL      0.671281
     51 O10        -6.1580   -4.7010   -1.5160 o         1 MOL     -0.559957
     52 C18        -4.9040   -2.5020   -3.2070 c3        1 MOL     -0.127108
     53 C19        -3.5250   -2.4550   -2.4960 c         1 MOL      0.702748
     54 N6         -2.4420   -2.6940   -3.2450 n         1 MOL     -0.747503
     55 O11        -3.3360   -2.1450   -1.3620 o         1 MOL     -0.715633
     56 H20        -5.4350   -0.5540   -1.6940 hn        1 MOL      0.233701
     57 H21        -6.9490   -2.7980   -2.7130 h1        1 MOL      0.117447
     58 H22        -4.9450   -1.6890   -3.9200 hc        1 MOL      0.060332
     59 H23        -4.9250   -3.4560   -3.7410 hc        1 MOL      0.060332
     60 H24        -2.5860   -2.7170   -4.2460 hn        1 MOL      0.342569
     61 H25        -1.5520   -2.4730   -2.8330 hn        1 MOL      0.342569
     62 N7         -5.8970   -3.3900    0.2600 n         1 MOL     -0.432575
     63 C20        -5.8790   -4.4740    1.3410 c3        1 MOL     -0.124203
     64 C21        -4.5600   -5.0690    1.6800 c         1 MOL      0.593041
     65 O12        -4.5200   -6.0140    2.4750 o         1 MOL     -0.604459
     66 H26        -5.4400   -2.5620    0.6240 hn        1 MOL      0.244921
     67 H27        -6.4700   -5.3270    0.9990 h1        1 MOL      0.099254
     68 H28        -6.3220   -4.1040    2.2690 h1        1 MOL      0.099254
     69 N8         -3.4500   -4.4250    1.2840 n         1 MOL     -0.372020
     70 C22        -2.0740   -4.7610    1.5230 c3        1 MOL     -0.077381
     71 C23        -1.1720   -3.5010    1.6620 c         1 MOL      0.481204
     72 O13        -1.3750   -2.4860    1.0110 o         1 MOL     -0.507552
     73 C24        -1.5870   -5.4450    0.2690 c3        1 MOL      0.463852
     74 C25        -1.8140   -6.8500    0.1760 c3        1 MOL     -0.465192
     75 O14        -2.1660   -4.7930   -0.8470 oh        1 MOL     -0.538012
     76 H29        -3.5740   -3.6970    0.5840 hn        1 MOL      0.283494
     77 H30        -1.9950   -5.3880    2.4070 h1        1 MOL      0.092342
     78 H31        -0.5050   -5.4360    0.3110 h1        1 MOL      0.005744
     79 H32        -1.7450   -3.9340   -0.9230 ho        1 MOL      0.315436
     80 H33        -2.8990   -6.9720    0.1390 hc        1 MOL      0.114807
     81 H34        -1.3970   -7.1640   -0.7720 hc        1 MOL      0.114807
     82 H35        -1.3560   -7.3760    1.0200 hc        1 MOL      0.114807
     83 N9         -0.0710   -3.5940    2.4040 n         1 MOL     -0.583754
     84 C26         1.1020   -2.6140    2.3720 c3        1 MOL     -0.159362
     85 C27         1.7260   -2.8750    1.0650 c         1 MOL      0.524256
     86 O15         2.2790   -3.9610    0.7870 o         1 MOL     -0.615207
     87 C28         2.1530   -2.7580    3.5100 c3        1 MOL      0.221211
     88 C29         1.5880   -3.1860    4.8690 c3        1 MOL      0.016308
     89 C30         2.8220   -1.4610    3.5820 c3        1 MOL     -0.314501
     90 C31         2.7050   -3.6730    5.7580 c3        1 MOL     -0.143978
     91 H36         0.0280   -4.4550    2.9260 hn        1 MOL      0.328093
     92 H37         0.6750   -1.6150    2.3640 h1        1 MOL      0.199302
     93 H38         2.9480   -3.4520    3.2240 hc        1 MOL      0.027400
     94 H39         0.8560   -3.9790    4.7530 hc        1 MOL      0.003591
     95 H40         1.1380   -2.3270    5.3730 hc        1 MOL      0.003591
     96 H41         3.7870   -1.6250    4.0560 hc        1 MOL      0.064464
     97 H42         3.0980   -1.1460    2.5790 hc        1 MOL      0.064464
     98 H43         2.1310   -0.8190    4.1340 hc        1 MOL      0.064464
     99 H44         3.3100   -4.4790    5.3340 hc        1 MOL      0.029662
    100 H45         3.3500   -2.8830    6.1530 hc        1 MOL      0.029662
    101 H46         2.2160   -3.9980    6.6740 hc        1 MOL      0.029662
    102 N10         1.6840   -1.9020    0.1930 n         1 MOL     -0.055585
    103 C32         2.6150   -1.8830   -0.9960 c3        1 MOL     -0.061426
    104 C33         4.0530   -1.3970   -0.6720 c         1 MOL      0.459511
    105 O16         4.2810   -0.8890    0.4090 o         1 MOL     -0.394204
    106 C34         2.0260   -0.9610   -2.0390 c3        1 MOL     -0.174820
    107 C35         0.5440   -1.2270   -2.4710 c         1 MOL      0.629789
    108 O17        -0.4210   -1.1550   -1.6250 o         1 MOL     -0.622662
    109 O18         0.4480   -1.4810   -3.7160 o         1 MOL     -0.622662
    110 H47         1.0920   -1.1040    0.3900 hn        1 MOL      0.025771
    111 H48         2.6540   -2.8780   -1.4400 h1        1 MOL      0.071825
    112 H49         2.6570   -0.8110   -2.9090 hc        1 MOL      0.082372
    113 H50         2.0690   -0.0060   -1.5130 hc        1 MOL      0.082372
    114 N11         4.8830   -1.4990   -1.6940 n         1 MOL     -0.544742
    115 C36         6.3180   -1.1720   -1.4800 c3        1 MOL      0.348625
    116 C37         6.5560    0.3450   -1.4730 c         1 MOL      0.192958
    117 O19         7.2500    0.8040   -0.5410 o         1 MOL     -0.453392
    118 C38         7.2190   -1.9800   -2.4720 c3        1 MOL     -0.311562
    119 C39         8.6800   -1.8810   -2.0710 ca        1 MOL      0.154074
    120 C40         9.1900   -2.8150   -1.1520 ca        1 MOL     -0.204991
    121 C41         9.5620   -0.9330   -2.6260 ca        1 MOL     -0.204991
    122 C42        10.5600   -2.7950   -0.7690 ca        1 MOL     -0.063583
    123 C43        10.9010   -0.8940   -2.2310 ca        1 MOL     -0.063583
    124 C44        11.4410   -1.7600   -1.2930 ca        1 MOL     -0.175185
    125 H51         4.6380   -1.9090   -2.5780 hn        1 MOL      0.316030
    126 H52         6.6660   -1.4360   -0.4830 h1        1 MOL      0.069957
    127 H53         7.1270   -1.6170   -3.5010 hc        1 MOL      0.092125
    128 H54         6.8240   -2.9950   -2.3880 hc        1 MOL      0.092125
    129 H55         8.5200   -3.5730   -0.7580 ha        1 MOL      0.129724
    130 H56         9.1170   -0.2770   -3.3660 ha        1 MOL      0.129724
    131 H57        11.0010   -3.5320   -0.1210 ha        1 MOL      0.097203
    132 H58        11.5630   -0.2350   -2.7730 ha        1 MOL      0.097203
    133 H59        12.4620   -1.6030   -1.0070 ha        1 MOL      0.129807
    134 N12         5.9450    1.2370   -2.2990 n         1 MOL      0.085140
    135 C45         5.9680    2.6810   -2.0630 c3        1 MOL      0.047123
    136 C46         5.5100    3.0240   -0.5760 c         1 MOL      0.176215
    137 O20         6.0190    3.9650    0.0050 o         1 MOL     -0.463116
    138 C47         4.9160    3.2590   -3.0800 c3        1 MOL     -0.122483
    139 C48         5.0780    2.3030   -4.2660 c3        1 MOL     -0.087206
    140 C49         5.1830    0.9770   -3.5110 c3        1 MOL     -0.175942
    141 H60         6.9950    3.0280   -2.1960 h1        1 MOL      0.064306
    142 H61         3.8560    3.2840   -2.8230 hc        1 MOL      0.081746
    143 H62         5.2570    4.2180   -3.4510 hc        1 MOL      0.081746
    144 H63         4.1740    2.4610   -4.8490 hc        1 MOL      0.059213
    145 H64         6.0010    2.5300   -4.8090 hc        1 MOL      0.059213
    146 H65         4.1840    0.6120   -3.2560 h1        1 MOL      0.063678
    147 H66         5.7940    0.3590   -4.1700 h1        1 MOL      0.063678
    148 N13         4.5700    2.2730    0.0090 n         1 MOL     -0.009283
    149 C50         4.0900    2.5300    1.3810 c3        1 MOL     -0.016441
    150 C51         5.0150    1.9460    2.4660 c         1 MOL      0.433534
    151 O21         5.1230    2.5720    3.4790 o         1 MOL     -0.547296
    152 C52         2.6860    1.9050    1.6060 c3        1 MOL      0.027910
    153 C53         1.5910    2.4670    0.6130 c3        1 MOL     -0.278555
    154 C54         0.2740    1.6480    0.6160 c         1 MOL      0.772442
    155 O22        -0.7550    2.0850   -0.0590 o         1 MOL     -0.744506
    156 O23         0.1470    0.5160    1.1130 o         1 MOL     -0.744506
    157 H67         4.1040    1.4690   -0.3710 hn        1 MOL      0.088751
    158 H68         3.9730    3.5840    1.6140 h1        1 MOL      0.087238
    159 H69         2.4220    2.1600    2.6290 hc        1 MOL      0.008887
    160 H70         2.7390    0.8200    1.5040 hc        1 MOL      0.008887
    161 H71         2.0380    2.4000   -0.3780 hc        1 MOL      0.094523
    162 H72         1.4530    3.5200    0.8540 hc        1 MOL      0.094523
    163 N14         5.6980    0.8080    2.1890 n         1 MOL     -0.050163
    164 C55         6.7560    0.2570    3.0470 c3        1 MOL     -0.224179
    165 H73         7.3220   -0.4890    2.4900 h1        1 MOL      0.080359
    166 H74         7.4240    1.0590    3.3610 h1        1 MOL      0.080359
    167 H75         6.3070   -0.2080    3.9240 h1        1 MOL      0.080359
    168 H76         5.5230    0.3700    1.2940 hn        1 MOL      0.093246
    169 Ca1        -2.1830   -0.1530   -0.0060 Ca        1 MOL      1.654973
    170 O24        -1.9690   -0.2700    2.6100 oh        1 MOL     -0.792481
    171 H77        -1.0200   -0.1700    2.7010 ho        1 MOL      0.392309
    172 H78        -2.2980   -0.3040    3.5080 ho        1 MOL      0.392309
    173 O25        -4.4620   -0.7250    1.0600 oh        1 MOL     -0.792481
    174 H79        -4.4980   -1.0020    1.9830 ho        1 MOL      0.392309
    175 H80        -4.6030    0.2200    1.1010 ho        1 MOL      0.392309
@<TRIPOS>BOND
     1    1    2 1   
     2    1    4 1   
     3    1    5 1   
     4    1    6 1   
     5    2    3 2   
     6    2    7 1   
     7    7    8 1   
     8    7   15 1   
     9    8    9 1   
    10    8   11 1   
    11    8   16 1   
    12    9   10 2   
    13    9   19 1   
    14   11   12 1   
    15   11   17 1   
    16   11   18 1   
    17   12   13 1   
    18   12   14 1   
    19   19   20 1   
    20   19   24 1   
    21   20   21 1   
    22   20   23 1   
    23   20   25 1   
    24   21   22 2   
    25   21   29 1   
    26   23   26 1   
    27   23   27 1   
    28   23   28 1   
    29   29   30 1   
    30   29   37 1   
    31   30   31 1   
    32   30   33 1   
    33   30   38 1   
    34   31   32 2   
    35   31   41 1   
    36   33   34 1   
    37   33   39 1   
    38   33   40 1   
    39   34   35 1   
    40   34   36 1   
    41   41   42 1   
    42   41   45 1   
    43   42   43 1   
    44   42   46 1   
    45   42   47 1   
    46   43   44 2   
    47   43   48 1   
    48   48   49 1   
    49   48   56 1   
    50   49   50 1   
    51   49   52 1   
    52   49   57 1   
    53   50   51 2   
    54   50   62 1   
    55   52   53 1   
    56   52   58 1   
    57   52   59 1   
    58   53   54 1   
    59   53   55 2   
    60   54   60 1   
    61   54   61 1   
    62   62   63 1   
    63   62   66 1   
    64   63   64 1   
    65   63   67 1   
    66   63   68 1   
    67   64   65 2   
    68   64   69 1   
    69   69   70 1   
    70   69   76 1   
    71   70   71 1   
    72   70   73 1   
    73   70   77 1   
    74   71   72 2   
    75   71   83 1   
    76   73   74 1   
    77   73   75 1   
    78   73   78 1   
    79   74   80 1   
    80   74   81 1   
    81   74   82 1   
    82   75   79 1   
    83   83   84 1   
    84   83   91 1   
    85   84   85 1   
    86   84   87 1   
    87   84   92 1   
    88   85   86 2   
    89   85  102 1   
    90   87   88 1   
    91   87   89 1   
    92   87   93 1   
    93   88   90 1   
    94   88   94 1   
    95   88   95 1   
    96   89   96 1   
    97   89   97 1   
    98   89   98 1   
    99   90   99 1   
   100   90  100 1   
   101   90  101 1   
   102  102  103 1   
   103  102  110 1   
   104  103  104 1   
   105  103  106 1   
   106  103  111 1   
   107  104  105 2   
   108  104  114 1   
   109  106  107 1   
   110  106  112 1   
   111  106  113 1   
   112  107  108 1   
   113  107  109 1   
   114  114  115 1   
   115  114  125 1   
   116  115  116 1   
   117  115  118 1   
   118  115  126 1   
   119  116  117 2   
   120  116  134 1   
   121  118  119 1   
   122  118  127 1   
   123  118  128 1   
   124  119  120 ar  
   125  119  121 ar  
   126  120  122 ar  
   127  120  129 1   
   128  121  123 ar  
   129  121  130 1   
   130  122  124 ar  
   131  122  131 1   
   132  123  124 ar  
   133  123  132 1   
   134  124  133 1   
   135  134  135 1   
   136  134  140 1   
   137  135  136 1   
   138  135  138 1   
   139  135  141 1   
   140  136  137 2   
   141  136  148 1   
   142  138  139 1   
   143  138  142 1   
   144  138  143 1   
   145  139  140 1   
   146  139  144 1   
   147  139  145 1   
   148  140  146 1   
   149  140  147 1   
   150  148  149 1   
   151  148  157 1   
   152  149  150 1   
   153  149  152 1   
   154  149  158 1   
   155  150  151 2   
   156  150  163 1   
   157  152  153 1   
   158  152  159 1   
   159  152  160 1   
   160  153  154 1   
   161  153  161 1   
   162  153  162 1   
   163  154  155 1   
   164  154  156 1   
   165  163  164 1   
   166  163  168 1   
   167  164  165 1   
   168  164  166 1   
   169  164  167 1   
   170  170  171 1   
   171  170  172 1   
   172  173  174 1   
   173  173  175 1   
@<TRIPOS>SUBSTRUCTURE
     1 MOL         1 TEMP              0 ****  ****    0 ROOT
