@<TRIPOS>MOLECULE
MOL
  182   178     1     0     0
SMALL
resp


@<TRIPOS>ATOM
      1 C1          0.2460    4.5910    5.1600 c3        1 MOL     -0.411862
      2 C2          0.0590    3.7870    3.8770 c         1 MOL      0.623938
      3 O1          0.9170    3.9340    3.0140 o         1 MOL     -0.576865
      4 H1         -0.1830    4.0420    5.9980 hc        1 MOL      0.107694
      5 H2          1.3100    4.7510    5.3380 hc        1 MOL      0.107694
      6 H3         -0.2550    5.5540    5.0630 hc        1 MOL      0.107694
      7 N1         -1.0660    3.1010    3.6020 n         1 MOL     -0.388690
      8 C3         -1.4790    2.7250    2.3060 c3        1 MOL      0.051798
      9 C4         -2.0760    3.9780    1.6020 c         1 MOL      0.297169
     10 O2         -3.2290    4.2570    1.9450 o         1 MOL     -0.488322
     11 C5         -2.4490    1.4690    2.3110 c3        1 MOL     -0.151411
     12 C6         -2.6740    0.8760    0.9530 c         1 MOL      0.823648
     13 O3         -1.8750    1.2370    0.0200 o         1 MOL     -0.711838
     14 O4         -3.6140    0.0780    0.7930 o         1 MOL     -0.711838
     15 H4         -1.6330    2.8460    4.3940 hn        1 MOL      0.277054
     16 H5         -0.5680    2.4480    1.7780 h1        1 MOL      0.037825
     17 H6         -3.4140    1.7970    2.6940 hc        1 MOL      0.041000
     18 H7         -2.0240    0.6770    2.9280 hc        1 MOL      0.041000
     19 N2         -1.3680    4.7170    0.7230 n         1 MOL     -0.056729
     20 C7         -1.7920    6.0160    0.0530 c3        1 MOL     -0.137069
     21 C8         -2.8860    5.7910   -0.9900 c         1 MOL      0.469402
     22 O5         -3.7860    6.6430   -1.1120 o         1 MOL     -0.543722
     23 C9         -0.5920    6.6730   -0.6400 c3        1 MOL     -0.272721
     24 C10         0.3990    7.1790    0.4420 c3        1 MOL      0.091006
     25 C11         0.0180    8.5880    0.7850 c3        1 MOL      0.075517
     26 C12         0.9980    9.1830    1.7380 c3        1 MOL     -0.029320
     27 N3          0.8610   10.5900    1.7220 n4        1 MOL     -0.335456
     28 H8         -0.5130    4.3210    0.3630 hn        1 MOL      0.261547
     29 H9         -2.2150    6.6940    0.7890 h1        1 MOL      0.123399
     30 H10        -0.9030    7.5040   -1.2770 hc        1 MOL      0.113945
     31 H11        -0.0950    5.9960   -1.3380 hc        1 MOL      0.113945
     32 H12         1.3980    7.2190    0.0100 hc        1 MOL     -0.001877
     33 H13         0.4600    6.5330    1.3140 hc        1 MOL     -0.001877
     34 H14        -0.9800    8.5700    1.2200 hc        1 MOL      0.005873
     35 H15        -0.0740    9.1830   -0.1260 hc        1 MOL      0.005873
     36 H16         1.9720    8.9310    1.3090 hx        1 MOL      0.101503
     37 H17         0.8320    8.7670    2.7280 hx        1 MOL      0.101503
     38 H18         0.0160   10.8540    2.2190 hn        1 MOL      0.323763
     39 H19         1.6140   11.0310    2.2290 hn        1 MOL      0.323763
     40 H20         0.8840   11.0240    0.8110 hn        1 MOL      0.323763
     41 N4         -2.8620    4.6410   -1.7400 n         1 MOL     -0.271065
     42 C13        -3.9190    4.2170   -2.6510 c3        1 MOL      0.061421
     43 C14        -5.1290    3.5840   -1.8970 c         1 MOL      0.343842
     44 O6         -6.2140    3.5210   -2.4590 o         1 MOL     -0.495711
     45 C15        -3.3420    3.3460   -3.7720 c3        1 MOL     -0.274527
     46 C16        -2.4660    2.2200   -3.2430 c         1 MOL      0.646567
     47 O7         -1.3840    2.4410   -2.6760 o         1 MOL     -0.683453
     48 O8         -2.9050    1.0530   -3.2370 o         1 MOL     -0.683453
     49 H21        -2.1790    3.9410   -1.5010 hn        1 MOL      0.161061
     50 H22        -4.2790    5.0750   -3.2110 h1        1 MOL      0.093238
     51 H23        -2.8180    4.0670   -4.4030 hc        1 MOL      0.082807
     52 H24        -4.1320    2.9050   -4.3740 hc        1 MOL      0.082807
     53 N5         -4.8200    2.9750   -0.7310 n         1 MOL      0.121897
     54 C17        -5.8970    2.6170    0.2010 c3        1 MOL     -0.188919
     55 C18        -6.6560    1.3090   -0.1570 c         1 MOL      0.498366
     56 O9         -7.8910    1.3060   -0.0230 o         1 MOL     -0.562944
     57 H25        -3.8990    3.1100   -0.3500 hn        1 MOL      0.009204
     58 H26        -6.5910    3.4560    0.2810 h1        1 MOL      0.098564
     59 H27        -5.4970    2.4480    1.2000 h1        1 MOL      0.098564
     60 N6         -5.9670    0.2910   -0.6590 n         1 MOL     -0.181545
     61 C19        -6.5330   -0.9420   -1.2040 c3        1 MOL      0.011461
     62 C20        -6.6060   -2.0330   -0.1370 c         1 MOL      0.392353
     63 O10        -7.4370   -2.9270   -0.2040 o         1 MOL     -0.539546
     64 C21        -5.7670   -1.3870   -2.4400 c3        1 MOL     -0.040408
     65 C22        -4.4160   -2.0510   -2.2590 c         1 MOL      0.528385
     66 N7         -4.2700   -3.2360   -2.9020 n         1 MOL     -0.786985
     67 O11        -3.4800   -1.4960   -1.5260 o         1 MOL     -0.470411
     68 H28        -4.9760    0.4280   -0.5010 hn        1 MOL     -0.018393
     69 H29        -7.5640   -0.7210   -1.4890 h1        1 MOL      0.106411
     70 H30        -5.6920   -0.5700   -3.1680 hc        1 MOL      0.041340
     71 H31        -6.4070   -2.1300   -2.9200 hc        1 MOL      0.041340
     72 H32        -5.1400   -3.6760   -3.1480 hn        1 MOL      0.385614
     73 H33        -3.3600   -3.6720   -2.9840 hn        1 MOL      0.385614
     74 N8         -5.6470   -2.0120    0.7920 n         1 MOL     -0.103264
     75 C23        -5.6620   -2.8500    2.0290 c3        1 MOL     -0.294053
     76 C24        -4.2920   -3.5590    2.2490 c         1 MOL      0.576345
     77 O12        -4.1720   -4.3870    3.1430 o         1 MOL     -0.562949
     78 H34        -4.9120   -1.3270    0.7130 hn        1 MOL      0.225991
     79 H35        -6.3750   -3.6650    1.8980 h1        1 MOL      0.146609
     80 H36        -5.8620   -2.1840    2.8640 h1        1 MOL      0.146609
     81 N9         -3.2450   -3.2730    1.4600 n         1 MOL     -0.333528
     82 C25        -1.8860   -3.8370    1.5240 c3        1 MOL      0.253988
     83 C26        -0.8200   -2.8040    1.0410 c         1 MOL      0.651782
     84 O13        -1.1050   -1.8840    0.2940 o         1 MOL     -0.698917
     85 C27        -1.7680   -5.0710    0.6110 c3        1 MOL     -0.185803
     86 C28        -2.7880   -6.1080    0.8530 ca        1 MOL      0.025160
     87 C29        -3.9220   -6.2150    0.0250 ca        1 MOL     -0.118579
     88 C30        -2.6050   -7.0440    1.8800 ca        1 MOL     -0.118579
     89 C31        -4.8230   -7.2540    0.1750 ca        1 MOL     -0.298691
     90 C32        -3.4740   -8.0990    2.0380 ca        1 MOL     -0.298691
     91 C33        -4.6140   -8.1990    1.2210 ca        1 MOL      0.397338
     92 O14        -5.3820   -9.3300    1.3720 oh        1 MOL     -0.505368
     93 H37        -3.3550   -2.6200    0.6950 hn        1 MOL      0.120146
     94 H38        -1.7810   -4.0350    2.5980 h1        1 MOL      0.017476
     95 H39        -0.8270   -5.5710    0.8190 hc        1 MOL      0.057887
     96 H40        -1.8970   -4.7880   -0.4300 hc        1 MOL      0.057887
     97 H41        -4.1200   -5.4670   -0.7280 ha        1 MOL      0.119844
     98 H42        -1.8300   -6.8480    2.6150 ha        1 MOL      0.119844
     99 H43        -5.7180   -7.3240   -0.4300 ha        1 MOL      0.158719
    100 H44        -3.2890   -8.7860    2.8550 ha        1 MOL      0.158719
    101 H45        -5.1390   -9.7100    2.2220 ho        1 MOL      0.352435
    102 N10         0.3620   -2.9370    1.5690 n         1 MOL     -0.573503
    103 C34         1.5440   -2.1280    1.3690 c3        1 MOL     -0.058897
    104 C35         2.6660   -3.0470    0.9200 c         1 MOL      0.598227
    105 O15         2.9900   -4.0710    1.5430 o         1 MOL     -0.550193
    106 C36         1.8680   -1.4540    2.8010 c3        1 MOL      0.225001
    107 C37         0.6140   -0.6090    3.2370 c3        1 MOL      0.293680
    108 C38         3.1670   -0.5950    2.8050 c3        1 MOL     -0.440651
    109 C39         0.8060    0.0920    4.6560 c3        1 MOL     -0.514751
    110 H46         0.4430   -3.6890    2.2360 hn        1 MOL      0.295485
    111 H47         1.4680   -1.3390    0.6070 h1        1 MOL      0.072633
    112 H48         1.9420   -2.2290    3.5620 hc        1 MOL     -0.026078
    113 H49        -0.2340   -1.2900    3.3460 hc        1 MOL     -0.036724
    114 H50         0.3910    0.1020    2.4390 hc        1 MOL     -0.036724
    115 H51         3.3820   -0.5590    3.8670 hc        1 MOL      0.099629
    116 H52         4.0290   -1.0220    2.3030 hc        1 MOL      0.099629
    117 H53         2.9290    0.4090    2.4540 hc        1 MOL      0.099629
    118 H54         1.5570    0.8800    4.5640 hc        1 MOL      0.116745
    119 H55        -0.1680    0.4640    4.9770 hc        1 MOL      0.116745
    120 H56         1.2950   -0.5200    5.4180 hc        1 MOL      0.116745
    121 N11         3.2200   -2.7480   -0.2870 n         1 MOL     -0.370915
    122 C40         4.4310   -3.3890   -0.8620 c3        1 MOL     -0.078038
    123 C41         5.7520   -2.8670   -0.1890 c         1 MOL      0.347995
    124 O16         5.7780   -1.8680    0.4640 o         1 MOL     -0.249202
    125 C42         4.3830   -3.2450   -2.3700 c3        1 MOL      0.182692
    126 O17         4.7050   -1.8980   -2.6670 oh        1 MOL     -0.627389
    127 H57         3.0100   -1.8360   -0.6640 hn        1 MOL      0.156041
    128 H58         4.3680   -4.4510   -0.6140 h1        1 MOL      0.077352
    129 H59         3.3850   -3.4870   -2.7410 h1        1 MOL      0.037976
    130 H60         4.9440   -4.0840   -2.7980 h1        1 MOL      0.037976
    131 H61         4.0410   -1.2790   -2.3430 ho        1 MOL      0.408819
    132 N12         6.8770   -3.5310   -0.4240 n         1 MOL     -0.350924
    133 C43         8.0920   -3.1040    0.1980 c3        1 MOL      0.139774
    134 C44         8.5780   -1.7470   -0.3240 c         1 MOL      0.522806
    135 O18         8.9430   -0.9000    0.5070 o         1 MOL     -0.545503
    136 C45         9.2100   -4.1690   -0.0080 c3        1 MOL     -0.296417
    137 H62         6.8000   -4.3790   -0.9630 hn        1 MOL      0.264074
    138 H63         7.9570   -2.9890    1.2730 h1        1 MOL      0.067822
    139 H64         9.4950   -4.2200   -1.0630 hc        1 MOL      0.085661
    140 H65        10.0700   -3.7240    0.4980 hc        1 MOL      0.085661
    141 H66         8.9330   -5.1130    0.4650 hc        1 MOL      0.085661
    142 N13         8.4910   -1.5850   -1.6140 n         1 MOL     -0.477986
    143 C46         8.4980   -0.2530   -2.3200 c3        1 MOL      0.200243
    144 C47         7.5760    0.8610   -1.6610 c         1 MOL      0.255868
    145 O19         7.9190    2.0420   -1.7370 o         1 MOL     -0.508204
    146 C48         8.0660   -0.5300   -3.6990 c3        1 MOL     -0.283219
    147 H67         8.0170   -2.3620   -2.0500 hn        1 MOL      0.278754
    148 H68         9.5300    0.0970   -2.3720 h1        1 MOL      0.075639
    149 H69         7.0420   -0.9130   -3.7130 hc        1 MOL      0.077391
    150 H70         8.1660    0.3820   -4.2820 hc        1 MOL      0.077391
    151 H71         8.6490   -1.3510   -4.1280 hc        1 MOL      0.077391
    152 N14         6.4810    0.5320   -0.9530 n         1 MOL      0.231049
    153 C49         5.6740    1.5400   -0.2290 c3        1 MOL     -0.095652
    154 C50         6.2650    1.6480    1.2160 c         1 MOL      0.373651
    155 O20         6.3480    2.7430    1.7720 o         1 MOL     -0.529065
    156 C51         4.2320    1.0970   -0.2120 c3        1 MOL     -0.027614
    157 C52         3.5490    1.3020   -1.5980 c3        1 MOL     -0.155599
    158 C53         2.3190    0.4900   -1.6890 c         1 MOL      0.736920
    159 O21         2.6010   -0.7090   -1.9820 o         1 MOL     -0.687832
    160 O22         1.1860    0.9780   -1.2960 o         1 MOL     -0.687832
    161 H72         6.1200   -0.4180   -0.9180 hn        1 MOL     -0.075222
    162 H73         5.7350    2.5130   -0.6970 h1        1 MOL      0.087624
    163 H74         3.6800    1.7090    0.5000 hc        1 MOL      0.092272
    164 H75         4.2630    0.0310   -0.0230 hc        1 MOL      0.092272
    165 H76         4.3620    1.0170   -2.2750 hc        1 MOL      0.020331
    166 H77         3.2350    2.3210   -1.7670 hc        1 MOL      0.020331
    167 N15         6.6110    0.4750    1.8280 n         1 MOL     -0.068613
    168 C54         7.1480    0.2810    3.1940 c3        1 MOL     -0.180903
    169 H78         6.5250   -0.4340    3.7310 h1        1 MOL      0.078830
    170 H79         8.1680   -0.1010    3.1330 h1        1 MOL      0.078830
    171 H80         7.1470    1.2330    3.7250 h1        1 MOL      0.078830
    172 H81         6.4650   -0.3880    1.3270 hn        1 MOL      0.064876
    173 Ca1        -1.1650   -0.2800   -1.8350 Ca        1 MOL      1.793138
    174 O23         0.5080   -2.3870   -2.1840 oh        1 MOL     -0.839745
    175 H82         1.3150   -1.8660   -2.2190 ho        1 MOL      0.405537
    176 H83         0.8110   -3.2970   -2.2310 ho        1 MOL      0.405537
    177 O24        -1.7550   -1.9460   -4.0260 oh        1 MOL     -0.839745
    178 H84        -1.0890   -2.5440   -4.3630 ho        1 MOL      0.405537
    179 H85        -2.3090   -1.7550   -4.7780 ho        1 MOL      0.405537
    180 O25         0.3040    0.2120   -4.1390 oh        1 MOL     -0.839745
    181 H86         1.2310    0.3760   -4.3100 ho        1 MOL      0.405537
    182 H87        -0.1110    0.2890   -4.9920 ho        1 MOL      0.405537
@<TRIPOS>BOND
     1    1    2 1   
     2    1    4 1   
     3    1    5 1   
     4    1    6 1   
     5    2    3 2   
     6    2    7 1   
     7    7    8 1   
     8    7   15 1   
     9    8    9 1   
    10    8   11 1   
    11    8   16 1   
    12    9   10 2   
    13    9   19 1   
    14   11   12 1   
    15   11   17 1   
    16   11   18 1   
    17   12   13 1   
    18   12   14 1   
    19   19   20 1   
    20   19   28 1   
    21   20   21 1   
    22   20   23 1   
    23   20   29 1   
    24   21   22 2   
    25   21   41 1   
    26   23   24 1   
    27   23   30 1   
    28   23   31 1   
    29   24   25 1   
    30   24   32 1   
    31   24   33 1   
    32   25   26 1   
    33   25   34 1   
    34   25   35 1   
    35   26   27 1   
    36   26   36 1   
    37   26   37 1   
    38   27   38 1   
    39   27   39 1   
    40   27   40 1   
    41   41   42 1   
    42   41   49 1   
    43   42   43 1   
    44   42   45 1   
    45   42   50 1   
    46   43   44 2   
    47   43   53 1   
    48   45   46 1   
    49   45   51 1   
    50   45   52 1   
    51   46   47 1   
    52   46   48 1   
    53   53   54 1   
    54   53   57 1   
    55   54   55 1   
    56   54   58 1   
    57   54   59 1   
    58   55   56 2   
    59   55   60 1   
    60   60   61 1   
    61   60   68 1   
    62   61   62 1   
    63   61   64 1   
    64   61   69 1   
    65   62   63 2   
    66   62   74 1   
    67   64   65 1   
    68   64   70 1   
    69   64   71 1   
    70   65   66 1   
    71   65   67 2   
    72   66   72 1   
    73   66   73 1   
    74   74   75 1   
    75   74   78 1   
    76   75   76 1   
    77   75   79 1   
    78   75   80 1   
    79   76   77 2   
    80   76   81 1   
    81   81   82 1   
    82   81   93 1   
    83   82   83 1   
    84   82   85 1   
    85   82   94 1   
    86   83   84 2   
    87   83  102 1   
    88   85   86 1   
    89   85   95 1   
    90   85   96 1   
    91   86   87 ar  
    92   86   88 ar  
    93   87   89 ar  
    94   87   97 1   
    95   88   90 ar  
    96   88   98 1   
    97   89   91 ar  
    98   89   99 1   
    99   90   91 ar  
   100   90  100 1   
   101   91   92 1   
   102   92  101 1   
   103  102  103 1   
   104  102  110 1   
   105  103  104 1   
   106  103  106 1   
   107  103  111 1   
   108  104  105 2   
   109  104  121 1   
   110  106  107 1   
   111  106  108 1   
   112  106  112 1   
   113  107  109 1   
   114  107  113 1   
   115  107  114 1   
   116  108  115 1   
   117  108  116 1   
   118  108  117 1   
   119  109  118 1   
   120  109  119 1   
   121  109  120 1   
   122  121  122 1   
   123  121  127 1   
   124  122  123 1   
   125  122  125 1   
   126  122  128 1   
   127  123  124 2   
   128  123  132 1   
   129  125  126 1   
   130  125  129 1   
   131  125  130 1   
   132  126  131 1   
   133  132  133 1   
   134  132  137 1   
   135  133  134 1   
   136  133  136 1   
   137  133  138 1   
   138  134  135 2   
   139  134  142 1   
   140  136  139 1   
   141  136  140 1   
   142  136  141 1   
   143  142  143 1   
   144  142  147 1   
   145  143  144 1   
   146  143  146 1   
   147  143  148 1   
   148  144  145 2   
   149  144  152 1   
   150  146  149 1   
   151  146  150 1   
   152  146  151 1   
   153  152  153 1   
   154  152  161 1   
   155  153  154 1   
   156  153  156 1   
   157  153  162 1   
   158  154  155 2   
   159  154  167 1   
   160  156  157 1   
   161  156  163 1   
   162  156  164 1   
   163  157  158 1   
   164  157  165 1   
   165  157  166 1   
   166  158  159 1   
   167  158  160 1   
   168  167  168 1   
   169  167  172 1   
   170  168  169 1   
   171  168  170 1   
   172  168  171 1   
   173  174  175 1   
   174  174  176 1   
   175  177  178 1   
   176  177  179 1   
   177  180  181 1   
   178  180  182 1   
@<TRIPOS>SUBSTRUCTURE
     1 MOL         1 TEMP              0 ****  ****    0 ROOT
