@<TRIPOS>MOLECULE
MOL
  189   185     1     0     0
SMALL
resp


@<TRIPOS>ATOM
      1 C1          3.0000   -3.3040    6.0360 c3        1 MOL     -0.451169
      2 C2          2.9230   -2.9790    4.5210 c         1 MOL      0.694833
      3 O1          2.2470   -2.0370    4.1780 o         1 MOL     -0.556012
      4 H1          3.5480   -2.5130    6.5490 hc        1 MOL      0.110618
      5 H2          1.9920   -3.3710    6.4460 hc        1 MOL      0.110618
      6 H3          3.5150   -4.2540    6.1790 hc        1 MOL      0.110618
      7 N1          3.5740   -3.7720    3.7220 n         1 MOL     -0.589844
      8 C3          3.7880   -3.4400    2.2770 c3        1 MOL      0.345190
      9 C4          3.5450   -4.7090    1.4460 c         1 MOL      0.376769
     10 O2          3.8940   -5.8010    1.9340 o         1 MOL     -0.573101
     11 C5          5.2350   -2.8040    2.1480 c3        1 MOL     -0.261822
     12 C6          5.5880   -2.2400    0.7550 c         1 MOL      0.715702
     13 O3          4.6360   -1.7590    0.0810 o         1 MOL     -0.667170
     14 O4          6.7830   -2.2030    0.3440 o         1 MOL     -0.667170
     15 H4          3.9440   -4.6170    4.1290 hn        1 MOL      0.325704
     16 H5          3.1750   -2.6400    1.8800 h1        1 MOL     -0.008222
     17 H6          5.9630   -3.5540    2.4540 hc        1 MOL      0.017857
     18 H7          5.2840   -2.0010    2.8780 hc        1 MOL      0.017857
     19 N2          3.0440   -4.5430    0.2040 n         1 MOL      0.044508
     20 C7          3.1720   -5.4210   -0.9530 c3        1 MOL     -0.072547
     21 C8          3.6750   -4.6630   -2.2210 c         1 MOL      0.416573
     22 O5          4.3600   -5.2920   -3.0050 o         1 MOL     -0.552973
     23 C9          1.8090   -6.1450   -1.2690 c3        1 MOL      0.210366
     24 C10         0.8390   -5.2840   -2.0050 c3        1 MOL     -0.027919
     25 C11         1.1800   -6.7370    0.0330 c3        1 MOL     -0.211425
     26 C12        -0.4600   -5.9970   -2.4130 c3        1 MOL     -0.250205
     27 H8          2.6380   -3.6780   -0.1410 hn        1 MOL     -0.120561
     28 H9          3.8790   -6.2140   -0.7280 h1        1 MOL      0.069876
     29 H10         2.0480   -7.0010   -1.9080 hc        1 MOL     -0.033533
     30 H11         1.3210   -5.0140   -2.9470 hc        1 MOL      0.048215
     31 H12         0.5910   -4.4570   -1.3390 hc        1 MOL      0.048215
     32 H13         1.9040   -7.4780    0.3860 hc        1 MOL      0.038767
     33 H14         0.9020   -5.9790    0.7690 hc        1 MOL      0.038767
     34 H15         0.2360   -7.2460   -0.1970 hc        1 MOL      0.038767
     35 H16        -1.0960   -6.0450   -1.5320 hc        1 MOL      0.055291
     36 H17        -1.0910   -5.5080   -3.1610 hc        1 MOL      0.055291
     37 H18        -0.2880   -7.0390   -2.6830 hc        1 MOL      0.055291
     38 N3          3.2150   -3.3880   -2.4790 n         1 MOL     -0.038483
     39 C13         3.3820   -2.7040   -3.7940 c3        1 MOL     -0.085701
     40 C14         4.5910   -1.7340   -3.9230 c         1 MOL      0.425232
     41 O6          4.7700   -1.1480   -5.0070 o         1 MOL     -0.552695
     42 C15         2.0430   -1.9300   -4.0540 c3        1 MOL     -0.029509
     43 C16         1.6960   -0.7890   -3.0850 c         1 MOL      0.744739
     44 O7          2.6010   -0.2540   -2.3470 o         1 MOL     -0.702040
     45 O8          0.5430   -0.2600   -3.0820 o         1 MOL     -0.702040
     46 H19         2.6880   -2.8370   -1.8120 hn        1 MOL     -0.047940
     47 H20         3.4690   -3.4680   -4.5700 h1        1 MOL      0.097613
     48 H21         1.2220   -2.6390   -4.1190 hc        1 MOL      0.019944
     49 H22         2.0830   -1.5010   -5.0560 hc        1 MOL      0.019944
     50 N4          5.3470   -1.4300   -2.8270 n         1 MOL     -0.193502
     51 C17         6.5830   -0.6820   -2.8310 c3        1 MOL     -0.227331
     52 C18         6.4740    0.8380   -2.7510 c         1 MOL      0.489595
     53 O9          7.4480    1.6020   -2.8720 o         1 MOL     -0.626916
     54 H23         4.9800   -1.7380   -1.9440 hn        1 MOL      0.166786
     55 H24         7.1530   -0.8840   -3.7370 h1        1 MOL      0.119279
     56 H25         7.1780   -1.0680   -2.0030 h1        1 MOL      0.119279
     57 N5          5.2720    1.4060   -2.7470 n         1 MOL     -0.090913
     58 C19         5.0170    2.7750   -3.1890 c3        1 MOL     -0.020522
     59 C20         5.5320    3.9020   -2.1360 c         1 MOL      0.441999
     60 O10         5.7060    5.0280   -2.5700 o         1 MOL     -0.565680
     61 C21         3.5110    3.0100   -3.4930 c3        1 MOL     -0.279705
     62 C22         2.6150    2.9720   -2.2640 c         1 MOL      0.829932
     63 O11         2.9510    2.3690   -1.2350 o         1 MOL     -0.731110
     64 O12         1.5060    3.4920   -2.3370 o         1 MOL     -0.731110
     65 H26         4.4580    0.8230   -2.6510 hn        1 MOL      0.164080
     66 H27         5.5150    2.9550   -4.1320 h1        1 MOL      0.074612
     67 H28         3.2890    2.1920   -4.1810 hc        1 MOL      0.084123
     68 H29         3.3630    3.9630   -3.9980 hc        1 MOL      0.084123
     69 N6          5.6920    3.5630   -0.8810 n         1 MOL     -0.174686
     70 C23         6.0260    4.5610    0.1430 c3        1 MOL     -0.243221
     71 C24         4.8330    4.9760    1.0360 c         1 MOL      0.477449
     72 O13         4.9850    5.8840    1.8970 o         1 MOL     -0.582167
     73 H30         5.6540    2.5830   -0.6310 hn        1 MOL      0.195433
     74 H31         6.6140    5.3580   -0.2990 h1        1 MOL      0.116236
     75 H32         6.6910    3.9550    0.7590 h1        1 MOL      0.116236
     76 N7          3.6610    4.3290    0.8650 n         1 MOL     -0.143094
     77 C25         2.4970    4.5760    1.7070 c3        1 MOL     -0.013590
     78 C26         1.9330    3.1930    2.0960 c         1 MOL      0.220095
     79 O14         2.2460    2.1820    1.4280 o         1 MOL     -0.413575
     80 C27         1.4300    5.4270    1.1000 c3        1 MOL     -0.051283
     81 C28         2.0360    6.7030    0.4840 c3        1 MOL     -0.445036
     82 C29         0.8600    7.6770    0.1870 c         1 MOL      0.696404
     83 N8          0.4180    7.8570   -1.0800 n         1 MOL     -0.805858
     84 O15         0.3910    8.4210    1.0490 o         1 MOL     -0.591699
     85 H33         3.4340    3.6210    0.1850 hn        1 MOL      0.130343
     86 H34         2.7280    5.0210    2.6720 h1        1 MOL      0.055808
     87 H35         0.5500    5.6050    1.7270 hc        1 MOL      0.087580
     88 H36         0.9870    4.9000    0.2570 hc        1 MOL      0.087580
     89 H37         2.5410    6.4870   -0.4540 hc        1 MOL      0.174815
     90 H38         2.6800    7.1800    1.2270 hc        1 MOL      0.174815
     91 H39         0.9360    7.4750   -1.8610 hn        1 MOL      0.362318
     92 H40        -0.3820    8.4600   -1.2090 hn        1 MOL      0.362318
     93 N9          1.0840    3.0990    3.1100 n         1 MOL     -0.142769
     94 C30         0.1370    2.0210    3.3590 c3        1 MOL     -0.064896
     95 C31        -1.2610    2.4710    2.8640 c         1 MOL      0.440915
     96 O16        -1.6540    3.6030    3.0910 o         1 MOL     -0.550874
     97 C32         0.2090    1.5290    4.8600 c3        1 MOL      0.055607
     98 C33        -0.5050    0.2300    5.1460 c3        1 MOL     -0.108775
     99 C34         1.6530    1.2870    5.3800 c3        1 MOL     -0.108775
    100 H41         0.8540    3.9770    3.5680 hn        1 MOL      0.203208
    101 H42         0.4220    1.2140    2.6730 h1        1 MOL      0.142080
    102 H43        -0.1320    2.2340    5.6170 hc        1 MOL      0.003801
    103 H44        -0.0890   -0.5620    4.5290 hc        1 MOL      0.016942
    104 H45        -0.4560   -0.0550    6.1920 hc        1 MOL      0.016942
    105 H46        -1.5420    0.3270    4.8120 hc        1 MOL      0.016942
    106 H47         2.2570    2.1940    5.4810 hc        1 MOL      0.016942
    107 H48         1.6250    0.8170    6.3740 hc        1 MOL      0.016942
    108 H49         2.1500    0.6330    4.6770 hc        1 MOL      0.016942
    109 N10        -1.9600    1.6330    2.0640 n         1 MOL     -0.160331
    110 C35        -3.2350    2.0050    1.5390 c3        1 MOL      0.280375
    111 C36        -4.3560    1.0110    1.8870 c         1 MOL      0.103818
    112 O17        -4.2270   -0.1950    2.1080 o         1 MOL     -0.252498
    113 C37        -3.0090    2.3730    0.0450 c3        1 MOL     -0.175557
    114 C38        -3.3480    1.2910   -1.0540 c         1 MOL      0.567888
    115 N11        -2.3010    0.6700   -1.5420 n         1 MOL     -0.649147
    116 O18        -4.5080    0.9410   -1.3710 o         1 MOL     -0.499744
    117 H50        -1.6430    0.7010    1.8430 hn        1 MOL      0.083118
    118 H51        -3.5410    2.9080    2.0670 h1        1 MOL      0.001484
    119 H52        -1.9850    2.7420   -0.0080 hc        1 MOL      0.053044
    120 H53        -3.6580    3.2190   -0.1630 hc        1 MOL      0.053044
    121 H54        -1.3900    0.7880   -1.1230 hn        1 MOL      0.349445
    122 H55        -2.4350   -0.0150   -2.2760 hn        1 MOL      0.349445
    123 N12        -5.5810    1.4950    1.8990 n         1 MOL     -0.232821
    124 C39        -6.8540    0.7030    2.0000 c3        1 MOL     -0.055835
    125 C40        -6.9510   -0.6070    1.2050 c         1 MOL      0.430830
    126 O19        -7.6920   -1.4650    1.6280 o         1 MOL     -0.554893
    127 C41        -8.0300    1.6380    1.8360 c3        1 MOL      0.059537
    128 C42        -8.3580    2.0370    0.3840 ca        1 MOL     -0.057020
    129 C43        -9.5960    1.6760   -0.1440 ca        1 MOL     -0.102568
    130 C44        -7.3380    2.6160   -0.4350 ca        1 MOL     -0.102568
    131 C45        -9.8490    1.9520   -1.4670 ca        1 MOL     -0.372063
    132 C46        -7.6310    2.9610   -1.7050 ca        1 MOL     -0.372063
    133 C47        -8.8980    2.6420   -2.2710 ca        1 MOL      0.388845
    134 O20        -9.2270    2.9070   -3.5370 oh        1 MOL     -0.420260
    135 H56        -5.7700    2.4820    1.7860 hn        1 MOL      0.238230
    136 H57        -6.8330    0.4450    3.0620 h1        1 MOL      0.068503
    137 H58        -7.9860    2.4760    2.5210 hc        1 MOL      0.001585
    138 H59        -8.9330    1.1180    2.1420 hc        1 MOL      0.001585
    139 H60       -10.3840    1.2810    0.4750 ha        1 MOL      0.116709
    140 H61        -6.3730    2.8820   -0.0300 ha        1 MOL      0.116709
    141 H62       -10.7650    1.6580   -1.9600 ha        1 MOL      0.180210
    142 H63        -6.9540    3.5420   -2.3190 ha        1 MOL      0.180210
    143 H64       -10.0610    2.4630   -3.7020 ho        1 MOL      0.323099
    144 N13        -6.3030   -0.8370    0.0670 n         1 MOL      0.046285
    145 C48        -6.4000   -2.1310   -0.6100 c3        1 MOL     -0.302344
    146 C49        -5.2650   -3.0670   -0.2400 c         1 MOL      0.474250
    147 O21        -5.4920   -4.2390    0.0390 o         1 MOL     -0.521270
    148 C50        -6.5610   -1.9710   -2.1800 c3        1 MOL      0.164369
    149 C51        -7.7820   -1.0750   -2.5440 c3        1 MOL     -0.309294
    150 C52        -7.9660   -0.8400   -4.0340 c         1 MOL      0.761802
    151 O22        -8.6020   -1.7140   -4.6780 o         1 MOL     -0.752508
    152 O23        -7.4150    0.1150   -4.6660 o         1 MOL     -0.752508
    153 H65        -5.5840   -0.2420   -0.3140 hn        1 MOL      0.177840
    154 H66        -7.3310   -2.6660   -0.4090 h1        1 MOL      0.150370
    155 H67        -6.5770   -2.9250   -2.7040 hc        1 MOL      0.000721
    156 H68        -5.6900   -1.4580   -2.5890 hc        1 MOL      0.000721
    157 H69        -7.5910   -0.0750   -2.1600 hc        1 MOL      0.050848
    158 H70        -8.6540   -1.5990   -2.1430 hc        1 MOL      0.050848
    159 N14        -4.0220   -2.5290   -0.0400 n         1 MOL     -0.291140
    160 C53        -2.9100   -3.2910    0.4670 c3        1 MOL     -0.056339
    161 C54        -2.8960   -3.7300    1.9880 c         1 MOL      0.348230
    162 O24        -2.4530   -4.8320    2.3600 o         1 MOL     -0.557832
    163 C55        -1.6350   -2.4790    0.1280 c3        1 MOL      0.208032
    164 C56        -0.5090   -2.8160    1.0240 c3        1 MOL     -0.183667
    165 C57         0.7200   -1.9390    0.6520 c         1 MOL      0.424409
    166 O25         0.8470   -0.8650    1.3220 o         1 MOL     -0.516366
    167 O26         1.5520   -2.2500   -0.2150 o         1 MOL     -0.516366
    168 H71        -3.8670   -1.5320   -0.1740 hn        1 MOL      0.091939
    169 H72        -2.8480   -4.1450   -0.1990 h1        1 MOL      0.108639
    170 H73        -1.8690   -1.4180    0.2170 hc        1 MOL     -0.010299
    171 H74        -1.2510   -2.7080   -0.8590 hc        1 MOL     -0.010299
    172 H75        -0.1650   -3.8140    0.7450 hc        1 MOL      0.074162
    173 H76        -0.7370   -2.6820    2.0820 hc        1 MOL      0.074162
    174 N15        -3.3730   -2.8700    2.8750 n         1 MOL      0.121128
    175 C58        -3.6060   -2.9720    4.3260 c3        1 MOL     -0.272087
    176 H77        -3.0120   -2.2190    4.8430 h1        1 MOL      0.094795
    177 H78        -4.6630   -2.8090    4.5370 h1        1 MOL      0.094795
    178 H79        -3.3150   -3.9650    4.6720 h1        1 MOL      0.094795
    179 H80        -3.6440   -1.9730    2.5050 hn        1 MOL     -0.049074
    180 Ca1         2.8320    0.1230    0.1100 Ca        1 MOL      1.697176
    181 O27         3.4600   -0.1700    2.7660 oh        1 MOL     -0.855309
    182 H81         2.8770   -0.6970    3.3090 ho        1 MOL      0.415694
    183 H82         4.2910   -0.1700    3.2440 ho        1 MOL      0.415694
    184 O28         5.2830    1.0290    0.6910 oh        1 MOL     -0.855309
    185 H83         6.1300    0.6240    0.5300 ho        1 MOL      0.415694
    186 H84         5.3680    1.4170    1.5630 ho        1 MOL      0.415694
    187 O29         0.4740    1.1830   -0.7700 oh        1 MOL     -0.855309
    188 H85         0.7870    2.0830   -0.9140 ho        1 MOL      0.415694
    189 H86         0.4470    0.8020   -1.6460 ho        1 MOL      0.415694
@<TRIPOS>BOND
     1    1    2 1   
     2    1    4 1   
     3    1    5 1   
     4    1    6 1   
     5    2    3 2   
     6    2    7 1   
     7    7    8 1   
     8    7   15 1   
     9    8    9 1   
    10    8   11 1   
    11    8   16 1   
    12    9   10 2   
    13    9   19 1   
    14   11   12 1   
    15   11   17 1   
    16   11   18 1   
    17   12   13 1   
    18   12   14 1   
    19   19   20 1   
    20   19   27 1   
    21   20   21 1   
    22   20   23 1   
    23   20   28 1   
    24   21   22 2   
    25   21   38 1   
    26   23   24 1   
    27   23   25 1   
    28   23   29 1   
    29   24   26 1   
    30   24   30 1   
    31   24   31 1   
    32   25   32 1   
    33   25   33 1   
    34   25   34 1   
    35   26   35 1   
    36   26   36 1   
    37   26   37 1   
    38   38   39 1   
    39   38   46 1   
    40   39   40 1   
    41   39   42 1   
    42   39   47 1   
    43   40   41 2   
    44   40   50 1   
    45   42   43 1   
    46   42   48 1   
    47   42   49 1   
    48   43   44 1   
    49   43   45 1   
    50   50   51 1   
    51   50   54 1   
    52   51   52 1   
    53   51   55 1   
    54   51   56 1   
    55   52   53 2   
    56   52   57 1   
    57   57   58 1   
    58   57   65 1   
    59   58   59 1   
    60   58   61 1   
    61   58   66 1   
    62   59   60 2   
    63   59   69 1   
    64   61   62 1   
    65   61   67 1   
    66   61   68 1   
    67   62   63 1   
    68   62   64 1   
    69   69   70 1   
    70   69   73 1   
    71   70   71 1   
    72   70   74 1   
    73   70   75 1   
    74   71   72 2   
    75   71   76 1   
    76   76   77 1   
    77   76   85 1   
    78   77   78 1   
    79   77   80 1   
    80   77   86 1   
    81   78   79 2   
    82   78   93 1   
    83   80   81 1   
    84   80   87 1   
    85   80   88 1   
    86   81   82 1   
    87   81   89 1   
    88   81   90 1   
    89   82   83 1   
    90   82   84 2   
    91   83   91 1   
    92   83   92 1   
    93   93   94 1   
    94   93  100 1   
    95   94   95 1   
    96   94   97 1   
    97   94  101 1   
    98   95   96 2   
    99   95  109 1   
   100   97   98 1   
   101   97   99 1   
   102   97  102 1   
   103   98  103 1   
   104   98  104 1   
   105   98  105 1   
   106   99  106 1   
   107   99  107 1   
   108   99  108 1   
   109  109  110 1   
   110  109  117 1   
   111  110  111 1   
   112  110  113 1   
   113  110  118 1   
   114  111  112 2   
   115  111  123 1   
   116  113  114 1   
   117  113  119 1   
   118  113  120 1   
   119  114  115 1   
   120  114  116 2   
   121  115  121 1   
   122  115  122 1   
   123  123  124 1   
   124  123  135 1   
   125  124  125 1   
   126  124  127 1   
   127  124  136 1   
   128  125  126 2   
   129  125  144 1   
   130  127  128 1   
   131  127  137 1   
   132  127  138 1   
   133  128  129 ar  
   134  128  130 ar  
   135  129  131 ar  
   136  129  139 1   
   137  130  132 ar  
   138  130  140 1   
   139  131  133 ar  
   140  131  141 1   
   141  132  133 ar  
   142  132  142 1   
   143  133  134 1   
   144  134  143 1   
   145  144  145 1   
   146  144  153 1   
   147  145  146 1   
   148  145  148 1   
   149  145  154 1   
   150  146  147 2   
   151  146  159 1   
   152  148  149 1   
   153  148  155 1   
   154  148  156 1   
   155  149  150 1   
   156  149  157 1   
   157  149  158 1   
   158  150  151 1   
   159  150  152 1   
   160  159  160 1   
   161  159  168 1   
   162  160  161 1   
   163  160  163 1   
   164  160  169 1   
   165  161  162 2   
   166  161  174 1   
   167  163  164 1   
   168  163  170 1   
   169  163  171 1   
   170  164  165 1   
   171  164  172 1   
   172  164  173 1   
   173  165  166 1   
   174  165  167 1   
   175  174  175 1   
   176  174  179 1   
   177  175  176 1   
   178  175  177 1   
   179  175  178 1   
   180  181  182 1   
   181  181  183 1   
   182  184  185 1   
   183  184  186 1   
   184  187  188 1   
   185  187  189 1   
@<TRIPOS>SUBSTRUCTURE
     1 MOL         1 TEMP              0 ****  ****    0 ROOT
