@<TRIPOS>MOLECULE
MOL
  179   176     1     0     0
SMALL
resp


@<TRIPOS>ATOM
      1 C1          2.6800    3.2390    3.9160 c3        1 MOL     -0.162147
      2 C2          1.6290    3.0890    2.8110 c         1 MOL      0.640812
      3 O1          2.0940    3.1360    1.6710 o         1 MOL     -0.587077
      4 H1          3.6110    2.7700    3.5970 hc        1 MOL      0.035347
      5 H2          2.8550    4.2970    4.1110 hc        1 MOL      0.035347
      6 H3          2.3240    2.7540    4.8250 hc        1 MOL      0.035347
      7 N1          0.3380    2.9200    3.0910 n         1 MOL     -0.611962
      8 C3         -0.7290    2.7260    2.1450 c3        1 MOL      0.197954
      9 C4         -1.2300    4.0630    1.6160 c         1 MOL      0.558449
     10 O2         -2.2620    4.5750    1.9670 o         1 MOL     -0.482146
     11 C5         -1.9660    1.9920    2.7330 c3        1 MOL     -0.053928
     12 C6         -2.9880    1.5060    1.6810 c         1 MOL      0.603531
     13 O3         -4.2000    1.5250    2.0270 o         1 MOL     -0.585144
     14 O4         -2.6620    1.2870    0.4710 o         1 MOL     -0.585144
     15 H4          0.1030    2.9410    4.0670 hn        1 MOL      0.333097
     16 H5         -0.2810    2.1700    1.3200 h1        1 MOL     -0.045494
     17 H6         -2.4720    2.7340    3.3600 hc        1 MOL      0.009780
     18 H7         -1.6580    1.1400    3.3500 hc        1 MOL      0.009780
     19 N2         -0.4580    4.6900    0.7250 n         1 MOL     -0.482332
     20 C7         -0.5410    6.1910    0.3180 c3        1 MOL     -0.061713
     21 C8         -1.7060    6.3770   -0.7110 c         1 MOL      0.503106
     22 O5         -2.4460    7.3420   -0.6940 o         1 MOL     -0.535813
     23 C9          0.8070    6.7580   -0.2420 c3        1 MOL     -0.411998
     24 C10         2.0060    6.6810    0.7510 c3        1 MOL      0.446364
     25 C11         3.1550    7.4370    0.0920 c3        1 MOL      0.056386
     26 C12         4.5420    7.1380    0.6530 c3        1 MOL      0.043031
     27 N3          4.5820    7.6170    2.0560 n4        1 MOL     -0.510756
     28 H8          0.4250    4.2330    0.5420 hn        1 MOL      0.334541
     29 H9         -0.8200    6.7910    1.1770 h1        1 MOL      0.117962
     30 H10         0.6280    7.8090   -0.4410 hc        1 MOL      0.138947
     31 H11         1.2360    6.3060   -1.1440 hc        1 MOL      0.138947
     32 H12         2.2870    5.6500    0.9630 hc        1 MOL     -0.112356
     33 H13         1.8270    7.1290    1.7290 hc        1 MOL     -0.112356
     34 H14         2.9940    8.4930    0.3030 hc        1 MOL     -0.025708
     35 H15         3.1320    7.2910   -0.9830 hc        1 MOL     -0.025708
     36 H16         5.2600    7.7200    0.0710 hx        1 MOL      0.090178
     37 H17         4.8800    6.1070    0.5060 hx        1 MOL      0.090178
     38 H18         5.5540    7.6900    2.3270 hn        1 MOL      0.367330
     39 H19         4.2250    8.5590    2.1500 hn        1 MOL      0.367330
     40 H20         4.1320    6.8950    2.6000 hn        1 MOL      0.367330
     41 N4         -1.9140    5.3010   -1.4410 n         1 MOL     -0.321001
     42 C13        -2.9890    5.1040   -2.4480 c3        1 MOL      0.077957
     43 C14        -4.3590    4.7390   -1.7230 c         1 MOL      0.429053
     44 O6         -5.4150    5.1900   -2.1040 o         1 MOL     -0.540366
     45 C15        -2.6140    4.0130   -3.4560 c3        1 MOL     -0.341580
     46 C16        -2.0770    2.7270   -2.7350 c         1 MOL      0.712990
     47 O7         -2.8910    1.7820   -2.6730 o         1 MOL     -0.703648
     48 O8         -0.9550    2.7400   -2.2620 o         1 MOL     -0.703648
     49 H21        -1.2610    4.5370   -1.3450 hn        1 MOL      0.244830
     50 H22        -3.0860    6.1000   -2.8770 h1        1 MOL      0.069627
     51 H23        -1.7640    4.3490   -4.0510 hc        1 MOL      0.092125
     52 H24        -3.4810    3.7640   -4.0700 hc        1 MOL      0.092125
     53 N5         -4.3660    3.9630   -0.6610 n         1 MOL      0.161817
     54 C17        -5.5850    3.5880    0.0660 c3        1 MOL     -0.119683
     55 C18        -6.4310    2.5110   -0.5360 c         1 MOL      0.543181
     56 O9         -7.4170    2.7640   -1.1910 o         1 MOL     -0.538376
     57 H25        -3.4880    3.7340   -0.2290 hn        1 MOL     -0.049270
     58 H26        -6.1240    4.4990    0.3460 h1        1 MOL      0.065726
     59 H27        -5.2410    3.1820    1.0240 h1        1 MOL      0.065726
     60 N6         -5.8280    1.3140   -0.5420 n         1 MOL     -0.034228
     61 C19        -6.4530    0.0920   -1.0430 c3        1 MOL     -0.319645
     62 C20        -6.6730   -0.9680    0.0780 c         1 MOL      0.548313
     63 O10        -7.4190   -1.8950   -0.1690 o         1 MOL     -0.536600
     64 C21        -5.7710   -0.3440   -2.3310 c3        1 MOL      0.102759
     65 C22        -4.4180   -0.9730   -2.2880 c         1 MOL      0.299362
     66 N7         -3.9500   -1.7080   -3.2760 n         1 MOL     -0.820298
     67 O11        -3.7360   -1.0190   -1.2650 o         1 MOL     -0.195264
     68 H28        -4.8860    1.2900   -0.1840 hn        1 MOL     -0.291982
     69 H29        -7.4800    0.3750   -1.2780 h1        1 MOL      0.144415
     70 H30        -5.6940    0.5100   -3.0090 hc        1 MOL      0.068324
     71 H31        -6.3870   -0.9130   -3.0260 hc        1 MOL      0.068324
     72 H32        -4.5150   -1.8740   -4.1020 hn        1 MOL      0.376564
     73 H33        -3.1250   -2.2680   -3.0820 hn        1 MOL      0.376564
     74 N8         -5.9450   -0.8110    1.2370 n         1 MOL     -0.188256
     75 C23        -5.8430   -1.6090    2.4310 c3        1 MOL     -0.342831
     76 C24        -4.8500   -2.6900    2.4960 c         1 MOL      0.668081
     77 O12        -4.8900   -3.5840    3.3540 o         1 MOL     -0.584542
     78 H34        -5.4080    0.0530    1.2580 hn        1 MOL      0.232539
     79 H35        -6.8130   -2.0940    2.5700 h1        1 MOL      0.144492
     80 H36        -5.6040   -0.8910    3.2030 h1        1 MOL      0.144492
     81 N9         -3.8430   -2.6760    1.6160 n         1 MOL     -0.547459
     82 C25        -2.7540   -3.6460    1.4250 c3        1 MOL      0.451600
     83 C26        -1.4290   -2.9020    1.1190 c         1 MOL      0.378134
     84 O13        -1.4100   -1.8760    0.4730 o         1 MOL     -0.665355
     85 C27        -3.0190   -4.6790    0.3350 c3        1 MOL     -0.176430
     86 C28        -4.4120   -5.3650    0.3910 ca        1 MOL     -0.138736
     87 C29        -4.5520   -6.7250    0.7870 ca        1 MOL      0.045282
     88 C30        -5.5800   -4.6560   -0.0460 ca        1 MOL      0.045282
     89 C31        -5.7690   -7.3490    0.6780 ca        1 MOL     -0.430505
     90 C32        -6.8020   -5.3720   -0.2470 ca        1 MOL     -0.430505
     91 C33        -6.9380   -6.7190    0.1990 ca        1 MOL      0.510168
     92 O14        -8.1050   -7.4280   -0.0510 oh        1 MOL     -0.567931
     93 H37        -3.8120   -1.8470    1.0260 hn        1 MOL      0.309121
     94 H38        -2.6720   -4.1580    2.3850 h1        1 MOL     -0.023904
     95 H39        -2.1770   -5.3540    0.4670 hc        1 MOL      0.047269
     96 H40        -3.0130   -4.1430   -0.6130 hc        1 MOL      0.047269
     97 H41        -3.7470   -7.3440    1.1690 ha        1 MOL      0.092720
     98 H42        -5.4930   -3.6100   -0.3100 ha        1 MOL      0.092720
     99 H43        -5.8740   -8.3830    0.9820 ha        1 MOL      0.175643
    100 H44        -7.6580   -4.8270   -0.6020 ha        1 MOL      0.175643
    101 H45        -8.7400   -6.8880   -0.5320 ho        1 MOL      0.397432
    102 N10        -0.3100   -3.4790    1.5780 n         1 MOL     -0.353019
    103 C34         1.0580   -2.8840    1.3600 c3        1 MOL     -0.125961
    104 C35         2.0030   -3.9820    0.7330 c         1 MOL      0.434134
    105 O15         2.1350   -5.0520    1.2810 o         1 MOL     -0.497682
    106 C36         1.6920   -2.0630    2.5920 c3        1 MOL      0.031362
    107 C37         2.0370   -2.8130    3.8820 c3        1 MOL     -0.055189
    108 C38         0.6810   -0.8830    2.8590 c3        1 MOL     -0.027463
    109 C39         2.8010   -2.0120    4.9370 c3        1 MOL     -0.192376
    110 H46        -0.3940   -4.2350    2.2390 hn        1 MOL      0.272782
    111 H47         0.9580   -2.1570    0.5540 h1        1 MOL      0.198967
    112 H48         2.6000   -1.5750    2.2220 hc        1 MOL      0.013137
    113 H49         2.6160   -3.6910    3.5930 hc        1 MOL      0.045127
    114 H50         1.0920   -3.2300    4.2340 hc        1 MOL      0.045127
    115 H51        -0.3090   -1.3100    3.0200 hc        1 MOL      0.018264
    116 H52         1.0340   -0.3430    3.7300 hc        1 MOL      0.018264
    117 H53         0.6250   -0.2550    1.9720 hc        1 MOL      0.018264
    118 H54         3.2410   -2.6930    5.6600 hc        1 MOL      0.055598
    119 H55         3.5200   -1.3740    4.4260 hc        1 MOL      0.055598
    120 H56         2.0760   -1.4080    5.4770 hc        1 MOL      0.055598
    121 N11         2.8370   -3.5930   -0.2920 n         1 MOL     -0.275717
    122 C40         3.8380   -4.4570   -0.8920 c3        1 MOL      0.042599
    123 C41         5.2960   -3.9790   -0.5810 c         1 MOL      0.698359
    124 O16         5.4850   -3.0150    0.1450 o         1 MOL     -0.571854
    125 C42         3.4750   -4.4050   -2.4290 c3        1 MOL     -0.096796
    126 O17         4.0330   -3.1280   -2.8280 oh        1 MOL     -0.584001
    127 H57         2.6970   -2.7430   -0.8250 hn        1 MOL      0.200359
    128 H58         3.7850   -5.4870   -0.5370 h1        1 MOL      0.049541
    129 H59         2.4270   -4.4830   -2.7020 h1        1 MOL      0.098241
    130 H60         4.0160   -5.1970   -2.9570 h1        1 MOL      0.098241
    131 H61         3.8000   -3.0590   -3.7620 ho        1 MOL      0.407040
    132 N12         6.3600   -4.4920   -1.2120 n         1 MOL     -0.619366
    133 C43         7.7700   -4.2450   -0.8580 c3        1 MOL      0.242170
    134 C44         8.1640   -2.7960   -1.1360 c         1 MOL      0.441415
    135 O18         8.8780   -2.1890   -0.2770 o         1 MOL     -0.531647
    136 C45         8.5930   -5.3040   -1.5360 c3        1 MOL     -0.233220
    137 H62         6.1510   -5.2070   -1.9030 hn        1 MOL      0.300780
    138 H63         7.8980   -4.3820    0.2120 h1        1 MOL      0.069141
    139 H64         8.2520   -6.3160   -1.3370 hc        1 MOL      0.070345
    140 H65         8.5070   -5.0990   -2.6040 hc        1 MOL      0.070345
    141 H66         9.6620   -5.2590   -1.3230 hc        1 MOL      0.070345
    142 N13         7.7010   -2.1570   -2.2310 n         1 MOL     -0.442483
    143 C46         7.8740   -0.6790   -2.4630 c3        1 MOL      0.192219
    144 C47         7.2600    0.2150   -1.3740 c         1 MOL      0.375858
    145 O19         7.8200    1.2810   -1.1680 o         1 MOL     -0.536367
    146 C48         7.2200   -0.4100   -3.8510 c3        1 MOL     -0.402715
    147 H67         7.2090   -2.6590   -2.9530 hn        1 MOL      0.286333
    148 H68         8.9160   -0.3720   -2.5850 h1        1 MOL      0.075944
    149 H69         7.3920    0.6580   -3.9530 hc        1 MOL      0.110160
    150 H70         7.7470   -0.9920   -4.6140 hc        1 MOL      0.110160
    151 H71         6.1580   -0.6460   -3.8980 hc        1 MOL      0.110160
    152 N14         6.1340   -0.1550   -0.7450 n         1 MOL     -0.055388
    153 C49         5.3020    0.7630    0.0600 c3        1 MOL     -0.339339
    154 C50         5.8850    0.7950    1.4730 c         1 MOL      0.548809
    155 O20         5.5250    1.6360    2.2750 o         1 MOL     -0.582642
    156 C51         3.8510    0.3980    0.1120 c3        1 MOL      0.168132
    157 C52         3.1680    0.4030   -1.2620 c3        1 MOL      0.025527
    158 C53         1.7590   -0.0340   -0.9710 c         1 MOL      0.933700
    159 O21         0.9020    0.6230   -0.3330 o         1 MOL     -0.821473
    160 O22         1.2690   -0.9200   -1.7020 o         1 MOL     -0.821473
    161 H72         5.7720   -1.0810   -0.9640 hn        1 MOL      0.188770
    162 H73         5.3890    1.7550   -0.3860 h1        1 MOL      0.150005
    163 H74         3.2090    1.0570    0.6950 hc        1 MOL      0.012566
    164 H75         3.8390   -0.5890    0.5890 hc        1 MOL      0.012566
    165 H76         3.6250   -0.2170   -2.0380 hc        1 MOL     -0.037407
    166 H77         3.1670    1.3710   -1.7500 hc        1 MOL     -0.037407
    167 N15         6.8100   -0.0860    1.7110 n         1 MOL     -0.126595
    168 C54         7.7300   -0.0290    2.8210 c3        1 MOL     -0.295717
    169 H78         8.6700   -0.5030    2.5380 h1        1 MOL      0.114766
    170 H79         7.9140    1.0110    3.0890 h1        1 MOL      0.114766
    171 H80         7.3020   -0.5550    3.6750 h1        1 MOL      0.114766
    172 H81         7.0080   -0.7760    1.0090 hn        1 MOL      0.186360
    173 Ca1        -1.3780    0.1320   -1.3000 Ca        1 MOL      1.710429
    174 O23        -1.1940   -2.3500   -2.2450 oh        1 MOL     -0.819454
    175 H82        -0.3290   -2.1230   -2.5820 ho        1 MOL      0.406037
    176 H83        -1.2270   -3.3070   -2.2980 ho        1 MOL      0.406037
    177 O24        -0.5920    0.3670   -3.8700 oh        1 MOL     -0.819454
    178 H84        -0.1480    1.1290   -4.2240 ho        1 MOL      0.406037
    179 H85        -1.1840    0.0950   -4.5690 ho        1 MOL      0.406037
@<TRIPOS>BOND
     1    1    2 1   
     2    1    4 1   
     3    1    5 1   
     4    1    6 1   
     5    2    3 2   
     6    2    7 1   
     7    7    8 1   
     8    7   15 1   
     9    8    9 1   
    10    8   11 1   
    11    8   16 1   
    12    9   10 2   
    13    9   19 1   
    14   11   12 1   
    15   11   17 1   
    16   11   18 1   
    17   12   13 1   
    18   12   14 1   
    19   19   20 1   
    20   19   28 1   
    21   20   21 1   
    22   20   23 1   
    23   20   29 1   
    24   21   22 2   
    25   21   41 1   
    26   23   24 1   
    27   23   30 1   
    28   23   31 1   
    29   24   25 1   
    30   24   32 1   
    31   24   33 1   
    32   25   26 1   
    33   25   34 1   
    34   25   35 1   
    35   26   27 1   
    36   26   36 1   
    37   26   37 1   
    38   27   38 1   
    39   27   39 1   
    40   27   40 1   
    41   41   42 1   
    42   41   49 1   
    43   42   43 1   
    44   42   45 1   
    45   42   50 1   
    46   43   44 2   
    47   43   53 1   
    48   45   46 1   
    49   45   51 1   
    50   45   52 1   
    51   46   47 1   
    52   46   48 1   
    53   53   54 1   
    54   53   57 1   
    55   54   55 1   
    56   54   58 1   
    57   54   59 1   
    58   55   56 2   
    59   55   60 1   
    60   60   61 1   
    61   60   68 1   
    62   61   62 1   
    63   61   64 1   
    64   61   69 1   
    65   62   63 2   
    66   62   74 1   
    67   64   65 1   
    68   64   70 1   
    69   64   71 1   
    70   65   66 1   
    71   65   67 2   
    72   66   72 1   
    73   66   73 1   
    74   74   75 1   
    75   74   78 1   
    76   75   76 1   
    77   75   79 1   
    78   75   80 1   
    79   76   77 2   
    80   76   81 1   
    81   81   82 1   
    82   81   93 1   
    83   82   83 1   
    84   82   85 1   
    85   82   94 1   
    86   83   84 2   
    87   83  102 1   
    88   85   86 1   
    89   85   95 1   
    90   85   96 1   
    91   86   87 ar  
    92   86   88 ar  
    93   87   89 ar  
    94   87   97 1   
    95   88   90 ar  
    96   88   98 1   
    97   89   91 ar  
    98   89   99 1   
    99   90   91 ar  
   100   90  100 1   
   101   91   92 1   
   102   92  101 1   
   103  102  103 1   
   104  102  110 1   
   105  103  104 1   
   106  103  106 1   
   107  103  111 1   
   108  104  105 2   
   109  104  121 1   
   110  106  107 1   
   111  106  108 1   
   112  106  112 1   
   113  107  109 1   
   114  107  113 1   
   115  107  114 1   
   116  108  115 1   
   117  108  116 1   
   118  108  117 1   
   119  109  118 1   
   120  109  119 1   
   121  109  120 1   
   122  121  122 1   
   123  121  127 1   
   124  122  123 1   
   125  122  125 1   
   126  122  128 1   
   127  123  124 2   
   128  123  132 1   
   129  125  126 1   
   130  125  129 1   
   131  125  130 1   
   132  126  131 1   
   133  132  133 1   
   134  132  137 1   
   135  133  134 1   
   136  133  136 1   
   137  133  138 1   
   138  134  135 2   
   139  134  142 1   
   140  136  139 1   
   141  136  140 1   
   142  136  141 1   
   143  142  143 1   
   144  142  147 1   
   145  143  144 1   
   146  143  146 1   
   147  143  148 1   
   148  144  145 2   
   149  144  152 1   
   150  146  149 1   
   151  146  150 1   
   152  146  151 1   
   153  152  153 1   
   154  152  161 1   
   155  153  154 1   
   156  153  156 1   
   157  153  162 1   
   158  154  155 2   
   159  154  167 1   
   160  156  157 1   
   161  156  163 1   
   162  156  164 1   
   163  157  158 1   
   164  157  165 1   
   165  157  166 1   
   166  158  159 1   
   167  158  160 1   
   168  167  168 1   
   169  167  172 1   
   170  168  169 1   
   171  168  170 1   
   172  168  171 1   
   173  174  175 1   
   174  174  176 1   
   175  177  178 1   
   176  177  179 1   
@<TRIPOS>SUBSTRUCTURE
     1 MOL         1 TEMP              0 ****  ****    0 ROOT
