@<TRIPOS>MOLECULE
MOL
  189   185     1     0     0
SMALL
resp


@<TRIPOS>ATOM
      1 C1          1.6970   -2.6070    6.6270 c3        1 MOL     -0.375522
      2 C2          1.6140   -2.5110    5.0990 c         1 MOL      0.778699
      3 O1          0.8690   -1.6950    4.5130 o         1 MOL     -0.645954
      4 H1          1.4980   -3.6330    6.9370 hc        1 MOL      0.093785
      5 H2          2.6930   -2.3150    6.9560 hc        1 MOL      0.093785
      6 H3          0.9560   -1.9430    7.0730 hc        1 MOL      0.093785
      7 N1          2.5060   -3.2640    4.4280 n         1 MOL     -0.683338
      8 C3          2.8640   -3.0410    3.0480 c3        1 MOL      0.324260
      9 C4          2.9640   -4.4340    2.3040 c         1 MOL      0.328276
     10 O2          3.6540   -5.3490    2.8400 o         1 MOL     -0.548154
     11 C5          4.2660   -2.4670    3.0760 c3        1 MOL     -0.362055
     12 C6          4.8960   -2.3700    1.7440 c         1 MOL      0.786208
     13 O3          6.1310   -2.7300    1.7410 o         1 MOL     -0.648083
     14 O4          4.2630   -2.0450    0.6910 o         1 MOL     -0.648083
     15 H4          3.1000   -3.8520    4.9830 hn        1 MOL      0.344899
     16 H5          2.2090   -2.3690    2.4910 h1        1 MOL      0.100193
     17 H6          4.8650   -3.1320    3.7000 hc        1 MOL      0.049257
     18 H7          4.1000   -1.4770    3.5000 hc        1 MOL      0.049257
     19 N2          2.3750   -4.4470    1.1130 n         1 MOL      0.104459
     20 C7          2.6750   -5.4790    0.1450 c3        1 MOL     -0.042697
     21 C8          3.5850   -5.2420   -1.1170 c         1 MOL      0.435177
     22 O5          3.8480   -6.2370   -1.8520 o         1 MOL     -0.591330
     23 C9          1.3560   -6.2030   -0.1930 c3        1 MOL      0.258720
     24 C10         0.3080   -5.1940   -0.6720 c3        1 MOL     -0.031020
     25 C11         0.8200   -7.0090    0.9680 c3        1 MOL     -0.244123
     26 C12         0.6730   -4.2500   -1.8470 c3        1 MOL     -0.110261
     27 H8          1.9060   -3.5920    0.8530 hn        1 MOL     -0.143895
     28 H9          3.2560   -6.2410    0.6620 h1        1 MOL      0.045502
     29 H10         1.5030   -6.8710   -1.0380 hc        1 MOL     -0.019777
     30 H11        -0.1080   -4.7570    0.2370 hc        1 MOL     -0.002856
     31 H12        -0.4500   -5.8710   -1.0500 hc        1 MOL     -0.002856
     32 H13         1.5910   -7.7690    1.1280 hc        1 MOL      0.035912
     33 H14         0.7090   -6.4630    1.9040 hc        1 MOL      0.035912
     34 H15        -0.0400   -7.5730    0.6110 hc        1 MOL      0.035912
     35 H16         1.3440   -3.4550   -1.5230 hc        1 MOL      0.032252
     36 H17         1.0370   -4.7370   -2.7540 hc        1 MOL      0.032252
     37 H18        -0.2350   -3.7200   -2.1330 hc        1 MOL      0.032252
     38 N3          3.9600   -4.0270   -1.4430 n         1 MOL     -0.253787
     39 C13         4.5850   -3.7450   -2.7520 c3        1 MOL      0.036558
     40 C14         5.9600   -3.0320   -2.6600 c         1 MOL      0.352339
     41 O6          6.6700   -2.8390   -3.6150 o         1 MOL     -0.541226
     42 C15         3.6400   -3.0930   -3.7370 c3        1 MOL     -0.253040
     43 C16         3.0800   -1.7600   -3.3500 c         1 MOL      0.874644
     44 O7          3.3500   -1.1910   -2.2840 o         1 MOL     -0.759820
     45 O8          2.1920   -1.2610   -4.0620 o         1 MOL     -0.759820
     46 H19         3.9110   -3.3090   -0.7380 hn        1 MOL      0.220924
     47 H20         4.7600   -4.7040   -3.2400 h1        1 MOL      0.100618
     48 H21         2.8340   -3.8090   -3.8920 hc        1 MOL      0.070885
     49 H22         4.1510   -2.9260   -4.6840 hc        1 MOL      0.070885
     50 N4          6.2310   -2.4690   -1.4770 n         1 MOL     -0.067584
     51 C17         7.4920   -1.8280   -1.2040 c3        1 MOL     -0.232036
     52 C18         7.6360   -0.3070   -1.5750 c         1 MOL      0.533485
     53 O9          8.7070    0.2450   -1.4320 o         1 MOL     -0.608311
     54 H23         5.5210   -2.4870   -0.7510 hn        1 MOL      0.030927
     55 H24         8.3410   -2.2400   -1.7590 h1        1 MOL      0.110495
     56 H25         7.6970   -1.9060   -0.1330 h1        1 MOL      0.110495
     57 N5          6.6070    0.3570   -2.0850 n         1 MOL     -0.200220
     58 C19         6.6740    1.7770   -2.6450 c3        1 MOL     -0.055056
     59 C20         6.9210    2.8650   -1.5860 c         1 MOL      0.414625
     60 O10         7.2610    4.0570   -1.9980 o         1 MOL     -0.556629
     61 C21         5.3600    2.1830   -3.2300 c3        1 MOL     -0.185796
     62 C22         3.9480    2.0980   -2.4460 c         1 MOL      0.745503
     63 O11         3.8970    1.6470   -1.3210 o         1 MOL     -0.708598
     64 O12         2.9300    2.6450   -2.9180 o         1 MOL     -0.708598
     65 H26         5.7000   -0.0750   -2.1270 hn        1 MOL      0.169307
     66 H27         7.4930    1.8030   -3.3610 h1        1 MOL      0.117926
     67 H28         5.0150    1.6880   -4.1440 hc        1 MOL      0.055914
     68 H29         5.4520    3.2050   -3.5980 hc        1 MOL      0.055914
     69 N6          6.6660    2.5830   -0.2940 n         1 MOL     -0.183888
     70 C23         6.7180    3.5690    0.7680 c3        1 MOL     -0.284726
     71 C24         5.3850    4.2920    1.2470 c         1 MOL      0.466661
     72 O13         5.3600    5.0450    2.1830 o         1 MOL     -0.551097
     73 H30         6.3050    1.6520   -0.1350 hn        1 MOL      0.211374
     74 H31         7.3880    4.3660    0.4620 h1        1 MOL      0.135711
     75 H32         7.1710    2.9990    1.5890 h1        1 MOL      0.135711
     76 N7          4.2090    3.9240    0.6380 n         1 MOL     -0.193394
     77 C25         2.9280    4.4790    0.9880 c3        1 MOL      0.061191
     78 C26         1.7650    3.4030    1.2490 c         1 MOL      0.194886
     79 O14         1.7280    2.3410    0.6880 o         1 MOL     -0.361962
     80 C27         2.4300    5.5370   -0.0570 c3        1 MOL     -0.099929
     81 C28         3.4680    6.6440   -0.1930 c3        1 MOL     -0.254329
     82 C29         3.0870    7.8060   -1.0550 c         1 MOL      0.632013
     83 N8          3.1500    7.6850   -2.3580 n         1 MOL     -0.765312
     84 O15         2.6660    8.8950   -0.6620 o         1 MOL     -0.591722
     85 H33         4.2580    3.3240   -0.1720 hn        1 MOL      0.231745
     86 H34         3.1180    5.1030    1.8650 h1        1 MOL      0.061086
     87 H35         1.5430    5.9870    0.3970 hc        1 MOL      0.086119
     88 H36         2.2720    5.1710   -1.0700 hc        1 MOL      0.086119
     89 H37         4.3830    6.2080   -0.5810 hc        1 MOL      0.099954
     90 H38         3.6490    6.9420    0.8410 hc        1 MOL      0.099954
     91 H39         3.3780    6.8250   -2.8330 hn        1 MOL      0.356360
     92 H40         2.9120    8.4960   -2.9240 hn        1 MOL      0.356360
     93 N9          0.7750    3.7680    2.0360 n         1 MOL     -0.353745
     94 C30        -0.3720    2.8880    2.2870 c3        1 MOL      0.055959
     95 C31        -1.4750    3.3250    1.3080 c         1 MOL      0.392981
     96 O16        -1.9600    4.3910    1.5340 o         1 MOL     -0.550755
     97 C32        -0.8270    2.8920    3.7500 c3        1 MOL      0.165933
     98 C33        -2.1690    2.1570    3.9100 c3        1 MOL     -0.173900
     99 C34         0.2940    2.1960    4.5760 c3        1 MOL     -0.173900
    100 H41         0.7730    4.6370    2.5530 hn        1 MOL      0.272777
    101 H42        -0.1500    1.8460    2.0350 h1        1 MOL      0.164957
    102 H43        -0.9510    3.9040    4.1420 hc        1 MOL     -0.012248
    103 H44        -2.2940    1.9090    4.9580 hc        1 MOL      0.025847
    104 H45        -3.0130    2.7410    3.5340 hc        1 MOL      0.025847
    105 H46        -2.1140    1.2480    3.2960 hc        1 MOL      0.025847
    106 H47         0.2240    2.4670    5.6330 hc        1 MOL      0.025847
    107 H48         0.1150    1.1250    4.4440 hc        1 MOL      0.025847
    108 H49         1.3380    2.4730    4.4450 hc        1 MOL      0.025847
    109 N10        -1.7930    2.4840    0.2820 n         1 MOL     -0.116583
    110 C35        -2.7730    2.7710   -0.7300 c3        1 MOL      0.041118
    111 C36        -4.1680    2.3200   -0.1910 c         1 MOL      0.376801
    112 O17        -4.2590    1.5690    0.7960 o         1 MOL     -0.346575
    113 C37        -2.2890    2.2530   -2.1080 c3        1 MOL     -0.299238
    114 C38        -2.7370    0.8540   -2.4300 c         1 MOL      0.585150
    115 N11        -1.9440   -0.1300   -2.0800 n         1 MOL     -0.594041
    116 O18        -3.8750    0.5890   -2.8860 o         1 MOL     -0.595353
    117 H50        -1.2380    1.6460    0.1420 hn        1 MOL      0.111200
    118 H51        -2.8920    3.8480   -0.7900 h1        1 MOL      0.052166
    119 H52        -1.2020    2.2550   -2.1180 hc        1 MOL      0.116700
    120 H53        -2.6360    2.9230   -2.8960 hc        1 MOL      0.116700
    121 H54        -0.9690   -0.0100   -1.8440 hn        1 MOL      0.333597
    122 H55        -2.3090   -1.0670   -2.1870 hn        1 MOL      0.333597
    123 N12        -5.2190    2.5850   -0.9790 n         1 MOL     -0.429924
    124 C39        -6.6060    2.2020   -0.6030 c3        1 MOL      0.032445
    125 C40        -6.8730    0.7230   -0.3280 c         1 MOL      0.402641
    126 O19        -7.6730    0.4200    0.5710 o         1 MOL     -0.490107
    127 C41        -7.6160    2.6830   -1.7270 c3        1 MOL     -0.092359
    128 C42        -9.0480    2.3190   -1.3100 ca        1 MOL     -0.117748
    129 C43        -9.5880    2.8270   -0.1250 ca        1 MOL     -0.060992
    130 C44        -9.7140    1.2790   -2.0120 ca        1 MOL     -0.060992
    131 C45       -10.8310    2.2990    0.3000 ca        1 MOL     -0.385790
    132 C46       -10.8850    0.7270   -1.5370 ca        1 MOL     -0.385790
    133 C47       -11.3830    1.2030   -0.2820 ca        1 MOL      0.543658
    134 O20       -12.4970    0.6530    0.2630 oh        1 MOL     -0.610372
    135 H56        -4.9670    3.0010   -1.8560 hn        1 MOL      0.269395
    136 H57        -6.8580    2.8330    0.2420 h1        1 MOL      0.092779
    137 H58        -7.3860    2.2060   -2.6780 hc        1 MOL      0.066293
    138 H59        -7.6900    3.7700   -1.8240 hc        1 MOL      0.066293
    139 H60        -9.0570    3.6470    0.3270 ha        1 MOL      0.127701
    140 H61        -9.2320    0.8410   -2.8720 ha        1 MOL      0.127701
    141 H62       -11.3050    2.7490    1.1570 ha        1 MOL      0.159809
    142 H63       -11.3760   -0.0870   -2.0540 ha        1 MOL      0.159809
    143 H64       -12.9510   -0.0170   -0.2600 ho        1 MOL      0.410350
    144 N13        -6.2370   -0.2060   -1.0320 n         1 MOL     -0.122102
    145 C48        -6.3960   -1.6780   -0.7610 c3        1 MOL     -0.362925
    146 C49        -5.3980   -2.2480    0.2400 c         1 MOL      0.400360
    147 O21        -5.4720   -3.4880    0.5940 o         1 MOL     -0.510878
    148 C50        -6.3670   -2.4520   -2.0630 c3        1 MOL      0.186436
    149 C51        -7.6660   -2.3540   -2.8290 c3        1 MOL     -0.080165
    150 C52        -7.6830   -3.3920   -3.9180 c         1 MOL      0.654973
    151 O22        -8.1810   -4.5130   -3.7300 o         1 MOL     -0.736598
    152 O23        -6.9920   -3.1420   -4.8860 o         1 MOL     -0.736598
    153 H65        -5.6120    0.1700   -1.7320 hn        1 MOL      0.219517
    154 H66        -7.3980   -1.8500   -0.3920 h1        1 MOL      0.196658
    155 H67        -6.2120   -3.5210   -1.9010 hc        1 MOL      0.015723
    156 H68        -5.5130   -2.1150   -2.6490 hc        1 MOL      0.015723
    157 H69        -7.7990   -1.4130   -3.3590 hc        1 MOL     -0.028640
    158 H70        -8.5200   -2.6600   -2.2260 hc        1 MOL     -0.028640
    159 N14        -4.4460   -1.4340    0.7980 n         1 MOL     -0.233337
    160 C53        -3.6470   -1.7820    1.9720 c3        1 MOL      0.071104
    161 C54        -4.2060   -1.2420    3.2860 c         1 MOL      0.417341
    162 O24        -4.1450   -1.8680    4.3240 o         1 MOL     -0.551740
    163 C55        -2.2380   -1.2560    1.8470 c3        1 MOL     -0.341688
    164 C56        -1.3940   -2.2530    1.0170 c3        1 MOL     -0.269523
    165 C57        -0.1260   -1.4830    0.5750 c         1 MOL      0.798778
    166 O25         0.9470   -2.1310    0.6340 o         1 MOL     -0.727200
    167 O26        -0.0970   -0.2670    0.2030 o         1 MOL     -0.727200
    168 H71        -4.2220   -0.5770    0.3100 hn        1 MOL      0.230037
    169 H72        -3.7020   -2.8720    2.0910 h1        1 MOL      0.088788
    170 H73        -1.7520   -1.1160    2.8040 hc        1 MOL      0.170812
    171 H74        -2.3290   -0.2800    1.3630 hc        1 MOL      0.170812
    172 H75        -1.9850   -2.7450    0.2520 hc        1 MOL      0.114672
    173 H76        -1.0870   -3.1080    1.6220 hc        1 MOL      0.114672
    174 N15        -4.9420   -0.0770    3.2920 n         1 MOL     -0.086398
    175 C58        -5.5720    0.5470    4.4100 c3        1 MOL     -0.142752
    176 H77        -5.3930   -0.0490    5.3050 h1        1 MOL      0.061141
    177 H78        -5.1580    1.5450    4.5500 h1        1 MOL      0.061141
    178 H79        -6.6440    0.6190    4.2300 h1        1 MOL      0.061141
    179 H80        -5.0360    0.3550    2.3890 hn        1 MOL      0.065667
    180 Ca1         2.5120   -0.1230   -0.0090 Ca        1 MOL      1.704382
    181 O27         1.9740    0.1920    2.8840 oh        1 MOL     -0.864398
    182 H81         1.4880   -0.4350    3.4320 ho        1 MOL      0.412660
    183 H82         2.4380    0.7420    3.5020 ho        1 MOL      0.412660
    184 O28         1.1490    0.7190   -2.2640 oh        1 MOL     -0.864398
    185 H83         1.4880    0.0180   -2.8170 ho        1 MOL      0.412660
    186 H84         1.6710    1.4860   -2.4980 ho        1 MOL      0.412660
    187 O29         4.4210    0.7520    1.6880 oh        1 MOL     -0.864398
    188 H85         4.2080    1.2930    2.4530 ho        1 MOL      0.412660
    189 H86         5.3480    0.5290    1.8090 ho        1 MOL      0.412660
@<TRIPOS>BOND
     1    1    2 1   
     2    1    4 1   
     3    1    5 1   
     4    1    6 1   
     5    2    3 2   
     6    2    7 1   
     7    7    8 1   
     8    7   15 1   
     9    8    9 1   
    10    8   11 1   
    11    8   16 1   
    12    9   10 2   
    13    9   19 1   
    14   11   12 1   
    15   11   17 1   
    16   11   18 1   
    17   12   13 1   
    18   12   14 1   
    19   19   20 1   
    20   19   27 1   
    21   20   21 1   
    22   20   23 1   
    23   20   28 1   
    24   21   22 2   
    25   21   38 1   
    26   23   24 1   
    27   23   25 1   
    28   23   29 1   
    29   24   26 1   
    30   24   30 1   
    31   24   31 1   
    32   25   32 1   
    33   25   33 1   
    34   25   34 1   
    35   26   35 1   
    36   26   36 1   
    37   26   37 1   
    38   38   39 1   
    39   38   46 1   
    40   39   40 1   
    41   39   42 1   
    42   39   47 1   
    43   40   41 2   
    44   40   50 1   
    45   42   43 1   
    46   42   48 1   
    47   42   49 1   
    48   43   44 1   
    49   43   45 1   
    50   50   51 1   
    51   50   54 1   
    52   51   52 1   
    53   51   55 1   
    54   51   56 1   
    55   52   53 2   
    56   52   57 1   
    57   57   58 1   
    58   57   65 1   
    59   58   59 1   
    60   58   61 1   
    61   58   66 1   
    62   59   60 2   
    63   59   69 1   
    64   61   62 1   
    65   61   67 1   
    66   61   68 1   
    67   62   63 1   
    68   62   64 1   
    69   69   70 1   
    70   69   73 1   
    71   70   71 1   
    72   70   74 1   
    73   70   75 1   
    74   71   72 2   
    75   71   76 1   
    76   76   77 1   
    77   76   85 1   
    78   77   78 1   
    79   77   80 1   
    80   77   86 1   
    81   78   79 2   
    82   78   93 1   
    83   80   81 1   
    84   80   87 1   
    85   80   88 1   
    86   81   82 1   
    87   81   89 1   
    88   81   90 1   
    89   82   83 1   
    90   82   84 2   
    91   83   91 1   
    92   83   92 1   
    93   93   94 1   
    94   93  100 1   
    95   94   95 1   
    96   94   97 1   
    97   94  101 1   
    98   95   96 2   
    99   95  109 1   
   100   97   98 1   
   101   97   99 1   
   102   97  102 1   
   103   98  103 1   
   104   98  104 1   
   105   98  105 1   
   106   99  106 1   
   107   99  107 1   
   108   99  108 1   
   109  109  110 1   
   110  109  117 1   
   111  110  111 1   
   112  110  113 1   
   113  110  118 1   
   114  111  112 2   
   115  111  123 1   
   116  113  114 1   
   117  113  119 1   
   118  113  120 1   
   119  114  115 1   
   120  114  116 2   
   121  115  121 1   
   122  115  122 1   
   123  123  124 1   
   124  123  135 1   
   125  124  125 1   
   126  124  127 1   
   127  124  136 1   
   128  125  126 2   
   129  125  144 1   
   130  127  128 1   
   131  127  137 1   
   132  127  138 1   
   133  128  129 ar  
   134  128  130 ar  
   135  129  131 ar  
   136  129  139 1   
   137  130  132 ar  
   138  130  140 1   
   139  131  133 ar  
   140  131  141 1   
   141  132  133 ar  
   142  132  142 1   
   143  133  134 1   
   144  134  143 1   
   145  144  145 1   
   146  144  153 1   
   147  145  146 1   
   148  145  148 1   
   149  145  154 1   
   150  146  147 2   
   151  146  159 1   
   152  148  149 1   
   153  148  155 1   
   154  148  156 1   
   155  149  150 1   
   156  149  157 1   
   157  149  158 1   
   158  150  151 1   
   159  150  152 1   
   160  159  160 1   
   161  159  168 1   
   162  160  161 1   
   163  160  163 1   
   164  160  169 1   
   165  161  162 2   
   166  161  174 1   
   167  163  164 1   
   168  163  170 1   
   169  163  171 1   
   170  164  165 1   
   171  164  172 1   
   172  164  173 1   
   173  165  166 1   
   174  165  167 1   
   175  174  175 1   
   176  174  179 1   
   177  175  176 1   
   178  175  177 1   
   179  175  178 1   
   180  181  182 1   
   181  181  183 1   
   182  184  185 1   
   183  184  186 1   
   184  187  188 1   
   185  187  189 1   
@<TRIPOS>SUBSTRUCTURE
     1 MOL         1 TEMP              0 ****  ****    0 ROOT
