@<TRIPOS>MOLECULE
MOL
  189   185     1     0     0
SMALL
resp


@<TRIPOS>ATOM
      1 C1          1.1630    2.3330    4.8140 c3        1 MOL     -0.261102
      2 C2          0.4650    2.1130    3.5180 c         1 MOL      0.633555
      3 O1          1.0410    2.5020    2.5170 o         1 MOL     -0.556251
      4 H1          0.7070    1.7070    5.5820 hc        1 MOL      0.064204
      5 H2          2.2160    2.0710    4.7100 hc        1 MOL      0.064204
      6 H3          1.0760    3.3810    5.1020 hc        1 MOL      0.064204
      7 N1         -0.8090    1.6590    3.5630 n         1 MOL     -0.589089
      8 C3         -1.8040    1.4180    2.4360 c3        1 MOL      0.098017
      9 C4         -2.3660    2.7170    1.8890 c         1 MOL      0.535261
     10 O2         -3.6010    2.8390    1.8700 o         1 MOL     -0.489464
     11 C5         -2.8700    0.4210    2.8560 c3        1 MOL     -0.101998
     12 C6         -3.8540    0.1040    1.6910 c         1 MOL      0.584744
     13 O3         -3.4650    0.0910    0.4970 o         1 MOL     -0.637700
     14 O4         -4.9960   -0.2350    1.9650 o         1 MOL     -0.637700
     15 H4         -1.1500    1.3180    4.4570 hn        1 MOL      0.323480
     16 H5         -1.2830    0.9170    1.6230 h1        1 MOL      0.049442
     17 H6         -3.3770    0.6290    3.8060 hc        1 MOL      0.037115
     18 H7         -2.2830   -0.4710    3.0840 hc        1 MOL      0.037115
     19 N2         -1.5290    3.7090    1.5480 n         1 MOL     -0.428988
     20 C7         -1.9080    5.1020    1.2680 c3        1 MOL      0.008524
     21 C8         -2.7390    5.3860   -0.0500 c         1 MOL      0.424001
     22 O5         -3.6240    6.2530    0.0010 o         1 MOL     -0.529634
     23 C9         -0.6170    5.8660    1.2590 c3        1 MOL     -0.210568
     24 C10        -0.0400    6.1020    2.5520 c3        1 MOL      0.054875
     25 C11         1.1110    7.1540    2.2900 c3        1 MOL      0.066050
     26 C12         1.8520    7.7680    3.4520 c3        1 MOL     -0.084416
     27 N3          2.8160    6.8760    4.0850 n4        1 MOL     -0.331088
     28 H8         -0.5550    3.4810    1.5430 hn        1 MOL      0.352069
     29 H9         -2.5560    5.5500    2.0270 h1        1 MOL      0.105985
     30 H10        -0.9940    6.8110    0.8530 hc        1 MOL      0.064354
     31 H11         0.0870    5.4430    0.5420 hc        1 MOL      0.064354
     32 H12         0.3680    5.2000    3.0180 hc        1 MOL      0.000576
     33 H13        -0.7840    6.5370    3.2350 hc        1 MOL      0.000576
     34 H14         0.6540    7.9830    1.7560 hc        1 MOL      0.031632
     35 H15         1.8620    6.8440    1.5550 hc        1 MOL      0.031632
     36 H16         1.0840    8.0840    4.1730 hx        1 MOL      0.102395
     37 H17         2.3610    8.6300    3.0170 hx        1 MOL      0.102395
     38 H18         3.1670    7.3370    4.9010 hn        1 MOL      0.328713
     39 H19         2.3390    6.0540    4.4050 hn        1 MOL      0.328713
     40 H20         3.5250    6.5120    3.4620 hn        1 MOL      0.328713
     41 N4         -2.6130    4.5050   -1.0510 n         1 MOL     -0.326529
     42 C13        -3.5390    4.4760   -2.2010 c3        1 MOL      0.039232
     43 C14        -4.9280    3.8820   -1.9560 c         1 MOL      0.408221
     44 O6         -5.8720    4.1940   -2.7370 o         1 MOL     -0.524875
     45 C15        -2.8950    3.9590   -3.5340 c3        1 MOL     -0.234696
     46 C16        -2.4100    2.5120   -3.4990 c         1 MOL      0.893418
     47 O7         -2.6050    1.7460   -2.5650 o         1 MOL     -0.759490
     48 O8         -1.7580    2.0900   -4.5050 o         1 MOL     -0.759490
     49 H21        -1.9740    3.7260   -0.9790 hn        1 MOL      0.247822
     50 H22        -3.6930    5.5330   -2.4430 h1        1 MOL      0.087044
     51 H23        -2.0380    4.6250   -3.6300 hc        1 MOL      0.050497
     52 H24        -3.5310    4.2590   -4.3700 hc        1 MOL      0.050497
     53 N5         -5.0560    3.1010   -0.8370 n         1 MOL      0.052025
     54 C17        -6.3490    2.6510   -0.2690 c3        1 MOL     -0.411390
     55 C18        -6.9330    1.5280   -1.0550 c         1 MOL      0.843928
     56 O9         -7.7010    1.7970   -1.9050 o         1 MOL     -0.571766
     57 H25        -4.1770    2.8230   -0.4180 hn        1 MOL      0.107515
     58 H26        -7.0710    3.4700   -0.2880 h1        1 MOL      0.124513
     59 H27        -6.1700    2.3030    0.7470 h1        1 MOL      0.124513
     60 N6         -6.6490    0.2830   -0.7260 n         1 MOL     -0.606367
     61 C19        -7.1920   -0.8750   -1.3830 c3        1 MOL      0.083957
     62 C20        -7.3540   -2.1130   -0.4630 c         1 MOL      0.430731
     63 O10        -7.7720   -3.1480   -0.9390 o         1 MOL     -0.529661
     64 C21        -6.3970   -1.2360   -2.6290 c3        1 MOL     -0.264428
     65 C22        -4.8990   -1.3760   -2.3840 c         1 MOL      0.788171
     66 O11        -4.4860   -1.8590   -1.3140 o         1 MOL     -0.739311
     67 O12        -4.0980   -0.9290   -3.2700 o         1 MOL     -0.739311
     68 H28        -6.0110    0.0180    0.0090 hn        1 MOL      0.241055
     69 H29        -8.2300   -0.6990   -1.7010 h1        1 MOL      0.068596
     70 H30        -6.6680   -0.5250   -3.4150 hc        1 MOL      0.084917
     71 H31        -6.6130   -2.2510   -2.9640 hc        1 MOL      0.084917
     72 N7         -6.8230   -2.0740    0.7780 n         1 MOL     -0.288102
     73 C23        -6.8770   -3.2370    1.7660 c3        1 MOL     -0.158695
     74 C24        -5.7840   -4.2310    1.5910 c         1 MOL      0.632368
     75 O13        -5.9490   -5.2950    2.1810 o         1 MOL     -0.592023
     76 H32        -6.5310   -1.1810    1.1570 hn        1 MOL      0.273274
     77 H33        -7.8070   -3.8100    1.6590 h1        1 MOL      0.094042
     78 H34        -6.8480   -2.8980    2.8010 h1        1 MOL      0.094042
     79 N8         -4.7190   -3.8720    0.9010 n         1 MOL     -0.308031
     80 C25        -3.3630   -4.5940    0.7520 c3        1 MOL     -0.584010
     81 C26        -2.1660   -3.6010    0.9260 c         1 MOL      1.139006
     82 O14        -2.1440   -2.4960    0.3750 o         1 MOL     -0.783311
     83 C27        -3.1570   -5.4270   -0.5000 c3        1 MOL      0.537440
     84 C28        -3.9700   -6.7330   -0.3920 c3        1 MOL     -0.440200
     85 O15        -3.3250   -4.7670   -1.6900 oh        1 MOL     -0.648547
     86 H35        -4.7620   -3.0350    0.3250 hn        1 MOL      0.335084
     87 H36        -3.3060   -5.2010    1.6570 h1        1 MOL      0.168061
     88 H37        -2.1150   -5.7400   -0.5390 h1        1 MOL      0.037438
     89 H38        -4.1190   -4.2350   -1.5650 ho        1 MOL      0.442745
     90 H39        -3.6810   -7.3730   -1.2220 hc        1 MOL      0.108124
     91 H40        -3.4980   -7.3160    0.4010 hc        1 MOL      0.108124
     92 H41        -5.0590   -6.6610   -0.3570 hc        1 MOL      0.108124
     93 N9         -1.1250   -3.9740    1.6710 n         1 MOL     -0.891274
     94 C29         0.1520   -3.1380    1.7580 c3        1 MOL      0.046487
     95 C30         1.2150   -3.7560    0.8210 c         1 MOL      0.504271
     96 O16         1.3040   -4.9690    0.7010 o         1 MOL     -0.570170
     97 C31         0.7410   -2.9930    3.2260 c3        1 MOL      0.269513
     98 C32        -0.3600   -3.1810    4.3110 c3        1 MOL     -0.109635
     99 C33         1.4510   -1.6260    3.3860 c3        1 MOL     -0.452633
    100 C34         0.1050   -2.8190    5.7640 c3        1 MOL     -0.093921
    101 H42        -1.1840   -4.8730    2.1320 hn        1 MOL      0.358900
    102 H43        -0.0660   -2.1290    1.4180 h1        1 MOL      0.163592
    103 H44         1.4770   -3.7810    3.3760 hc        1 MOL     -0.023920
    104 H45        -0.7140   -4.1920    4.4710 hc        1 MOL      0.056105
    105 H46        -1.2530   -2.6070    4.0760 hc        1 MOL      0.056105
    106 H47         2.0590   -1.6010    2.4760 hc        1 MOL      0.091946
    107 H48         0.7050   -0.8270    3.3120 hc        1 MOL      0.091946
    108 H49         2.1150   -1.6980    4.2450 hc        1 MOL      0.091946
    109 H50        -0.5920   -3.2590    6.4780 hc        1 MOL      0.026800
    110 H51         1.0780   -3.2610    5.9640 hc        1 MOL      0.026800
    111 H52         0.0730   -1.7540    6.0030 hc        1 MOL      0.026800
    112 N10         1.9070   -2.9710    0.0490 n         1 MOL     -0.247445
    113 C35         3.0480   -3.3010   -0.8360 c3        1 MOL     -0.084541
    114 C36         4.4410   -2.9970   -0.1610 c         1 MOL      0.446392
    115 O17         4.5420   -2.2390    0.8330 o         1 MOL     -0.417391
    116 C37         2.9430   -2.6120   -2.1790 c3        1 MOL      0.413204
    117 C38         1.6840   -2.8250   -3.0510 c3        1 MOL     -0.366191
    118 O18         2.9400   -1.1550   -1.9960 oh        1 MOL     -0.701436
    119 H53         1.5690   -2.0160    0.1030 hn        1 MOL      0.287581
    120 H54         2.9890   -4.3230   -1.1880 h1        1 MOL      0.080606
    121 H55         3.7830   -2.9850   -2.7690 h1        1 MOL     -0.033558
    122 H56         2.0390   -0.9630   -1.7020 ho        1 MOL      0.405701
    123 H57         0.7570   -2.6210   -2.5220 hc        1 MOL      0.095782
    124 H58         1.7550   -2.2000   -3.9380 hc        1 MOL      0.095782
    125 H59         1.6910   -3.8310   -3.4500 hc        1 MOL      0.095782
    126 N11         5.5690   -3.5180   -0.7280 n         1 MOL     -0.338035
    127 C39         6.9090   -3.3980   -0.1680 c3        1 MOL      0.004700
    128 C40         7.2660   -1.9730   -0.0940 c         1 MOL      0.281775
    129 O19         7.7890   -1.4840    0.9160 o         1 MOL     -0.457181
    130 C41         7.9860   -4.1710   -0.9880 c3        1 MOL      0.576647
    131 C42         9.2120   -4.5110   -0.1410 c3        1 MOL     -0.488147
    132 O20         7.5830   -5.2940   -1.7310 oh        1 MOL     -0.688645
    133 H60         5.3720   -4.2140   -1.4460 hn        1 MOL      0.231698
    134 H61         6.9540   -3.6680    0.8880 h1        1 MOL      0.094478
    135 H62         8.3940   -3.5470   -1.7810 h1        1 MOL     -0.081158
    136 H63         8.2690   -5.6080   -2.3280 ho        1 MOL      0.417994
    137 H64         9.9470   -4.9680   -0.8000 hc        1 MOL      0.124048
    138 H65         9.7320   -3.6200    0.1850 hc        1 MOL      0.124048
    139 H66         8.9470   -5.1900    0.6680 hc        1 MOL      0.124048
    140 N12         7.0420   -1.2200   -1.1680 n         1 MOL     -0.301950
    141 C43         7.1420    0.2950   -1.2840 c3        1 MOL      0.001291
    142 C44         6.3800    1.0620   -0.1910 c         1 MOL      0.223770
    143 O21         6.8540    2.0230    0.4210 o         1 MOL     -0.512523
    144 C45         6.7100    0.7420   -2.6670 c3        1 MOL     -0.099613
    145 C46         6.7860    2.2240   -2.8770 c3        1 MOL     -0.085470
    146 C47         6.4900    2.7030   -4.2900 c3        1 MOL      0.150951
    147 C48         6.8760    4.2450   -4.4730 c3        1 MOL     -0.185205
    148 N13         6.8830    4.5440   -5.8990 n4        1 MOL     -0.035089
    149 H67         6.6380   -1.7090   -1.9620 hn        1 MOL      0.207720
    150 H68         8.1920    0.5600   -1.2120 h1        1 MOL      0.120133
    151 H69         5.7570    0.2240   -2.7620 hc        1 MOL      0.042703
    152 H70         7.3130    0.3420   -3.4730 hc        1 MOL      0.042703
    153 H71         7.7460    2.5710   -2.5110 hc        1 MOL      0.046826
    154 H72         5.9680    2.6380   -2.2860 hc        1 MOL      0.046826
    155 H73         5.4440    2.4970   -4.5080 hc        1 MOL      0.002937
    156 H74         7.1090    2.1670   -5.0110 hc        1 MOL      0.002937
    157 H75         7.9160    4.3450   -4.1420 hx        1 MOL      0.127719
    158 H76         6.1220    4.9120   -4.0410 hx        1 MOL      0.127719
    159 H77         7.1190    5.5170   -6.0170 hn        1 MOL      0.216010
    160 H78         7.4450    4.0000   -6.5420 hn        1 MOL      0.216010
    161 H79         5.9580    4.4180   -6.2880 hn        1 MOL      0.216010
    162 N14         5.1540    0.6760    0.0290 n         1 MOL      0.179482
    163 C49         4.2140    1.2950    0.9520 c3        1 MOL     -0.319303
    164 C50         4.7950    1.0450    2.4300 c         1 MOL      0.488725
    165 O22         4.6130    1.8690    3.2880 o         1 MOL     -0.572399
    166 C51         2.7920    0.6600    0.7370 c3        1 MOL      0.070416
    167 C52         2.0030    1.3580   -0.3690 c3        1 MOL     -0.251178
    168 C53         0.6930    0.6220   -0.6140 c         1 MOL      0.834321
    169 O23         0.6160   -0.6070   -0.7740 o         1 MOL     -0.781970
    170 O24        -0.3880    1.2850   -0.6170 o         1 MOL     -0.781970
    171 H80         4.8100   -0.0400   -0.5840 hn        1 MOL      0.188574
    172 H81         4.1170    2.3750    0.9100 h1        1 MOL      0.139650
    173 H82         2.1720    0.7990    1.6350 hc        1 MOL      0.012997
    174 H83         2.8410   -0.4180    0.5400 hc        1 MOL      0.012997
    175 H84         2.6460    1.3480   -1.2520 hc        1 MOL      0.044788
    176 H85         1.8810    2.4020   -0.0630 hc        1 MOL      0.044788
    177 N15         5.4860   -0.0700    2.7590 n         1 MOL     -0.116126
    178 C54         6.2480   -0.3620    4.0310 c3        1 MOL     -0.287644
    179 H86         5.7160   -1.1200    4.6070 h1        1 MOL      0.117733
    180 H87         7.2440   -0.7290    3.7830 h1        1 MOL      0.117733
    181 H88         6.3330    0.5490    4.6220 h1        1 MOL      0.117733
    182 H89         5.5500   -0.7630    2.0260 hn        1 MOL      0.166690
    183 Ca1        -2.0160   -0.6270   -1.5530 Ca        1 MOL      1.812544
    184 O25        -0.5570   -0.3160   -3.7580 oh        1 MOL     -0.898656
    185 H90        -0.0390   -0.5740   -4.5230 ho        1 MOL      0.418002
    186 H91        -1.0280    0.4690   -4.0320 ho        1 MOL      0.418002
    187 O26        -1.5760   -3.0120   -2.8300 oh        1 MOL     -0.898656
    188 H92        -1.3570   -3.0810   -3.7600 ho        1 MOL      0.418002
    189 H93        -2.0350   -3.8320   -2.6320 ho        1 MOL      0.418002
@<TRIPOS>BOND
     1    1    2 1   
     2    1    4 1   
     3    1    5 1   
     4    1    6 1   
     5    2    3 2   
     6    2    7 1   
     7    7    8 1   
     8    7   15 1   
     9    8    9 1   
    10    8   11 1   
    11    8   16 1   
    12    9   10 2   
    13    9   19 1   
    14   11   12 1   
    15   11   17 1   
    16   11   18 1   
    17   12   13 1   
    18   12   14 1   
    19   19   20 1   
    20   19   28 1   
    21   20   21 1   
    22   20   23 1   
    23   20   29 1   
    24   21   22 2   
    25   21   41 1   
    26   23   24 1   
    27   23   30 1   
    28   23   31 1   
    29   24   25 1   
    30   24   32 1   
    31   24   33 1   
    32   25   26 1   
    33   25   34 1   
    34   25   35 1   
    35   26   27 1   
    36   26   36 1   
    37   26   37 1   
    38   27   38 1   
    39   27   39 1   
    40   27   40 1   
    41   41   42 1   
    42   41   49 1   
    43   42   43 1   
    44   42   45 1   
    45   42   50 1   
    46   43   44 2   
    47   43   53 1   
    48   45   46 1   
    49   45   51 1   
    50   45   52 1   
    51   46   47 1   
    52   46   48 1   
    53   53   54 1   
    54   53   57 1   
    55   54   55 1   
    56   54   58 1   
    57   54   59 1   
    58   55   56 2   
    59   55   60 1   
    60   60   61 1   
    61   60   68 1   
    62   61   62 1   
    63   61   64 1   
    64   61   69 1   
    65   62   63 2   
    66   62   72 1   
    67   64   65 1   
    68   64   70 1   
    69   64   71 1   
    70   65   66 1   
    71   65   67 1   
    72   72   73 1   
    73   72   76 1   
    74   73   74 1   
    75   73   77 1   
    76   73   78 1   
    77   74   75 2   
    78   74   79 1   
    79   79   80 1   
    80   79   86 1   
    81   80   81 1   
    82   80   83 1   
    83   80   87 1   
    84   81   82 2   
    85   81   93 1   
    86   83   84 1   
    87   83   85 1   
    88   83   88 1   
    89   84   90 1   
    90   84   91 1   
    91   84   92 1   
    92   85   89 1   
    93   93   94 1   
    94   93  101 1   
    95   94   95 1   
    96   94   97 1   
    97   94  102 1   
    98   95   96 2   
    99   95  112 1   
   100   97   98 1   
   101   97   99 1   
   102   97  103 1   
   103   98  100 1   
   104   98  104 1   
   105   98  105 1   
   106   99  106 1   
   107   99  107 1   
   108   99  108 1   
   109  100  109 1   
   110  100  110 1   
   111  100  111 1   
   112  112  113 1   
   113  112  119 1   
   114  113  114 1   
   115  113  116 1   
   116  113  120 1   
   117  114  115 2   
   118  114  126 1   
   119  116  117 1   
   120  116  118 1   
   121  116  121 1   
   122  117  123 1   
   123  117  124 1   
   124  117  125 1   
   125  118  122 1   
   126  126  127 1   
   127  126  133 1   
   128  127  128 1   
   129  127  130 1   
   130  127  134 1   
   131  128  129 2   
   132  128  140 1   
   133  130  131 1   
   134  130  132 1   
   135  130  135 1   
   136  131  137 1   
   137  131  138 1   
   138  131  139 1   
   139  132  136 1   
   140  140  141 1   
   141  140  149 1   
   142  141  142 1   
   143  141  144 1   
   144  141  150 1   
   145  142  143 2   
   146  142  162 1   
   147  144  145 1   
   148  144  151 1   
   149  144  152 1   
   150  145  146 1   
   151  145  153 1   
   152  145  154 1   
   153  146  147 1   
   154  146  155 1   
   155  146  156 1   
   156  147  148 1   
   157  147  157 1   
   158  147  158 1   
   159  148  159 1   
   160  148  160 1   
   161  148  161 1   
   162  162  163 1   
   163  162  171 1   
   164  163  164 1   
   165  163  166 1   
   166  163  172 1   
   167  164  165 2   
   168  164  177 1   
   169  166  167 1   
   170  166  173 1   
   171  166  174 1   
   172  167  168 1   
   173  167  175 1   
   174  167  176 1   
   175  168  169 1   
   176  168  170 1   
   177  177  178 1   
   178  177  182 1   
   179  178  179 1   
   180  178  180 1   
   181  178  181 1   
   182  184  185 1   
   183  184  186 1   
   184  187  188 1   
   185  187  189 1   
@<TRIPOS>SUBSTRUCTURE
     1 MOL         1 TEMP              0 ****  ****    0 ROOT
