@<TRIPOS>MOLECULE
MOL
  179   176     1     0     0
SMALL
resp


@<TRIPOS>ATOM
      1 C1          3.7910   -5.7550    4.1530 c3        1 MOL     -0.497692
      2 C2          3.6540   -4.9130    2.8350 c         1 MOL      0.645879
      3 O1          3.4590   -5.4080    1.7390 o         1 MOL     -0.553268
      4 H1          4.7230   -6.3210    4.1270 hc        1 MOL      0.137331
      5 H2          3.7980   -5.0860    5.0140 hc        1 MOL      0.137331
      6 H3          2.9500   -6.4440    4.2350 hc        1 MOL      0.137331
      7 N1          3.6470   -3.5450    2.9200 n         1 MOL     -0.495687
      8 C3          3.4230   -2.6750    1.7660 c3        1 MOL      0.244486
      9 C4          4.7400   -2.5350    0.9330 c         1 MOL      0.276155
     10 O2          5.4020   -1.5320    1.1520 o         1 MOL     -0.458781
     11 C5          2.9450   -1.2410    2.2960 c3        1 MOL     -0.246959
     12 C6          2.4350   -0.4460    1.0490 c         1 MOL      0.790719
     13 O3          1.6830   -1.0380    0.2350 o         1 MOL     -0.776022
     14 O4          2.7070    0.7830    0.9190 o         1 MOL     -0.776022
     15 H4          3.8740   -3.1500    3.8210 hn        1 MOL      0.272457
     16 H5          2.6740   -3.1010    1.1080 h1        1 MOL      0.044015
     17 H6          3.7750   -0.7440    2.7920 hc        1 MOL      0.060438
     18 H7          2.1160   -1.4260    2.9740 hc        1 MOL      0.060438
     19 N2          5.0390   -3.4960    0.0790 n         1 MOL     -0.240193
     20 C7          6.2860   -3.7130   -0.6890 c3        1 MOL      0.042198
     21 C8          6.4700   -2.8820   -1.8750 c         1 MOL      0.355633
     22 O5          7.5580   -2.6590   -2.3510 o         1 MOL     -0.507772
     23 C9          6.5630   -5.2200   -0.9650 c3        1 MOL     -0.111141
     24 C10         6.7730   -6.0880    0.3220 c3        1 MOL     -0.068979
     25 C11         7.8350   -5.4710    1.2470 c3        1 MOL     -0.081184
     26 C12         8.6170   -6.3910    2.1750 c3        1 MOL      0.110052
     27 N3          9.8590   -5.7440    2.6610 n4        1 MOL     -0.346514
     28 H8          4.2380   -4.0720   -0.1510 hn        1 MOL      0.271073
     29 H9          7.1330   -3.4930   -0.0440 h1        1 MOL      0.032880
     30 H10         7.4220   -5.3240   -1.6350 hc        1 MOL      0.076461
     31 H11         5.7180   -5.5990   -1.5490 hc        1 MOL      0.076461
     32 H12         7.1570   -7.0760    0.0590 hc        1 MOL      0.046250
     33 H13         5.8270   -6.2020    0.8420 hc        1 MOL      0.046250
     34 H14         7.3940   -4.6550    1.8200 hc        1 MOL      0.055961
     35 H15         8.6270   -5.0260    0.6460 hc        1 MOL      0.055961
     36 H16         8.8470   -7.2930    1.6030 hx        1 MOL      0.058688
     37 H17         8.0540   -6.6750    3.0540 hx        1 MOL      0.058688
     38 H18        10.4610   -6.4170    3.1060 hn        1 MOL      0.325430
     39 H19        10.3250   -5.2480    1.9120 hn        1 MOL      0.325430
     40 H20         9.6490   -5.0650    3.3830 hn        1 MOL      0.325430
     41 N4          5.3960   -2.2280   -2.3450 n         1 MOL     -0.210391
     42 C13         5.5200   -1.1800   -3.2760 c3        1 MOL      0.047896
     43 C14         6.1520    0.1680   -2.7590 c         1 MOL      0.382128
     44 O6          6.8280    0.8420   -3.5230 o         1 MOL     -0.518711
     45 C15         4.2120   -0.8580   -3.9330 c3        1 MOL     -0.263854
     46 C16         3.0960   -0.3080   -3.0260 c         1 MOL      0.910863
     47 O7          3.1630    0.7270   -2.3530 o         1 MOL     -0.808124
     48 O8          2.0250   -0.9630   -2.8960 o         1 MOL     -0.808124
     49 H21         4.5110   -2.6070   -2.0440 hn        1 MOL      0.199744
     50 H22         6.1470   -1.4800   -4.1120 h1        1 MOL      0.093073
     51 H23         3.8460   -1.7620   -4.4260 hc        1 MOL      0.059586
     52 H24         4.4820   -0.1230   -4.6910 hc        1 MOL      0.059586
     53 N5          6.2230    0.3390   -1.4520 n         1 MOL     -0.087937
     54 C17         7.0060    1.4060   -0.8600 c3        1 MOL     -0.172034
     55 C18         6.3730    2.8440   -0.8970 c         1 MOL      0.496328
     56 O9          7.0720    3.8120   -0.6830 o         1 MOL     -0.552369
     57 H25         5.7560   -0.2640   -0.7850 hn        1 MOL      0.177709
     58 H26         8.0010    1.4180   -1.3020 h1        1 MOL      0.085337
     59 H27         7.1950    1.1590    0.1870 h1        1 MOL      0.085337
     60 N6          5.0970    2.9430   -1.1440 n         1 MOL     -0.150340
     61 C19         4.3600    4.1930   -1.1640 c3        1 MOL     -0.137945
     62 C20         3.9150    4.7620    0.1690 c         1 MOL      0.366270
     63 O10         3.6310    5.9230    0.2750 o         1 MOL     -0.468494
     64 C21         3.2210    4.1850   -2.2060 c3        1 MOL     -0.221336
     65 C22         1.7690    3.9790   -1.7310 c         1 MOL      0.631794
     66 N7          0.8400    4.6930   -2.3320 n         1 MOL     -0.868392
     67 O11         1.4560    3.0440   -1.0260 o         1 MOL     -0.509026
     68 H28         4.5340    2.1430   -1.3990 hn        1 MOL      0.195525
     69 H29         5.0660    4.8940   -1.6240 h1        1 MOL      0.129370
     70 H30         3.4780    3.4330   -2.9550 hc        1 MOL      0.107209
     71 H31         3.2480    5.1790   -2.6650 hc        1 MOL      0.107209
     72 H32         1.0570    5.6390   -2.6130 hn        1 MOL      0.396273
     73 H33        -0.0970    4.5100   -1.9990 hn        1 MOL      0.396273
     74 N8          3.7340    3.8590    1.1610 n         1 MOL     -0.174477
     75 C23         3.2420    4.3150    2.4910 c3        1 MOL     -0.205514
     76 C24         1.7220    4.2120    2.6530 c         1 MOL      0.443762
     77 O12         1.1990    4.7550    3.6400 o         1 MOL     -0.571882
     78 H34         4.1110    2.9430    0.9900 hn        1 MOL      0.219779
     79 H35         3.6190    5.3230    2.6500 h1        1 MOL      0.123402
     80 H36         3.6890    3.6750    3.2590 h1        1 MOL      0.123402
     81 N9          0.9800    3.6340    1.7310 n         1 MOL     -0.008071
     82 C25        -0.5020    3.5570    1.8110 c3        1 MOL      0.180630
     83 C26        -0.9460    2.0700    1.6100 c         1 MOL      0.039505
     84 O13        -0.3820    1.3810    0.7900 o         1 MOL     -0.320048
     85 C27        -1.1470    4.4410    0.7010 c3        1 MOL      0.434180
     86 C28        -1.1600    5.9360    1.0470 ca        1 MOL     -0.240087
     87 C29        -0.0750    6.7940    0.5610 ca        1 MOL     -0.017919
     88 C30        -2.2040    6.4750    1.7800 ca        1 MOL     -0.017919
     89 C31        -0.1680    8.1910    0.6290 ca        1 MOL     -0.375113
     90 C32        -2.2320    7.9070    1.9000 ca        1 MOL     -0.375113
     91 C33        -1.2480    8.7510    1.3280 ca        1 MOL      0.452810
     92 O14        -1.3920   10.0600    1.5210 oh        1 MOL     -0.460270
     93 H37         1.4160    3.0580    1.0300 hn        1 MOL      0.065801
     94 H38        -0.8220    3.9100    2.7910 h1        1 MOL      0.001874
     95 H39        -2.2050    4.1940    0.6610 hc        1 MOL     -0.137597
     96 H40        -0.8110    4.2140   -0.3130 hc        1 MOL     -0.137597
     97 H41         0.8140    6.3440    0.1370 ha        1 MOL      0.097615
     98 H42        -3.0210    5.8640    2.1270 ha        1 MOL      0.097615
     99 H43         0.6540    8.7950    0.2790 ha        1 MOL      0.168626
    100 H44        -3.1300    8.2900    2.3520 ha        1 MOL      0.168626
    101 H45        -2.2490   10.1820    1.9540 ho        1 MOL      0.324990
    102 N10        -2.0850    1.6980    2.1510 n         1 MOL     -0.159051
    103 C34        -2.9040    0.5920    1.6890 c3        1 MOL     -0.215740
    104 C35        -4.3320    1.1010    1.4090 c         1 MOL      0.514077
    105 O15        -4.9740    1.6390    2.2330 o         1 MOL     -0.519515
    106 C36        -2.7630   -0.7070    2.5360 c3        1 MOL      0.200970
    107 C37        -3.3110   -0.4050    3.9390 c3        1 MOL     -0.388061
    108 C38        -1.2670   -1.1700    2.5720 c3        1 MOL     -0.408020
    109 C39        -3.3080   -1.6130    4.9100 c3        1 MOL     -0.090316
    110 H46        -2.6110    2.2380    2.8260 hn        1 MOL      0.243197
    111 H47        -2.5580    0.2630    0.7010 h1        1 MOL      0.190276
    112 H48        -3.3810   -1.5040    2.1240 hc        1 MOL      0.025092
    113 H49        -4.3430   -0.0720    3.7960 hc        1 MOL      0.131532
    114 H50        -2.6690    0.3200    4.4370 hc        1 MOL      0.131532
    115 H51        -0.6240   -0.4580    3.0750 hc        1 MOL      0.125018
    116 H52        -1.1650   -2.1810    2.9850 hc        1 MOL      0.125018
    117 H53        -0.9540   -1.2650    1.5320 hc        1 MOL      0.125018
    118 H54        -4.0250   -2.3980    4.6840 hc        1 MOL      0.031639
    119 H55        -2.3590   -2.1160    5.0550 hc        1 MOL      0.031639
    120 H56        -3.5070   -1.2980    5.9370 hc        1 MOL      0.031639
    121 N11        -4.6380    0.9560    0.1030 n         1 MOL     -0.163808
    122 C40        -6.0450    1.1640   -0.3370 c3        1 MOL     -0.098103
    123 C41        -6.8970   -0.0140   -0.0500 c         1 MOL      0.389605
    124 O16        -6.4590   -0.9360    0.5950 o         1 MOL     -0.283134
    125 C42        -5.9660    1.4240   -1.7970 c3        1 MOL     -0.121288
    126 O17        -5.8190    0.2260   -2.5470 oh        1 MOL     -0.561906
    127 H57        -3.9820    0.5610   -0.5490 hn        1 MOL      0.054164
    128 H58        -6.3890    2.1300    0.0180 h1        1 MOL      0.080738
    129 H59        -5.1370    2.1220   -1.9600 h1        1 MOL      0.113768
    130 H60        -6.9180    1.8270   -2.1460 h1        1 MOL      0.113768
    131 H61        -4.8770    0.0870   -2.4240 ho        1 MOL      0.408251
    132 N12        -8.1710    0.1420   -0.2670 n         1 MOL     -0.411886
    133 C43        -9.1450   -0.8600    0.1630 c3        1 MOL      0.252520
    134 C44        -8.8700   -2.2630   -0.3430 c         1 MOL      0.331229
    135 O18        -8.8880   -3.3010    0.3390 o         1 MOL     -0.508980
    136 C45       -10.5000   -0.3320   -0.3520 c3        1 MOL     -0.424428
    137 H62        -8.4900    0.9050   -0.8480 hn        1 MOL      0.286368
    138 H63        -8.9970   -0.9150    1.2460 h1        1 MOL      0.033326
    139 H64       -11.2700   -0.8410    0.2140 hc        1 MOL      0.121833
    140 H65       -10.5290    0.6820    0.0510 hc        1 MOL      0.121833
    141 H66       -10.5060   -0.4930   -1.4290 hc        1 MOL      0.121833
    142 N13        -8.5920   -2.3750   -1.6420 n         1 MOL     -0.237394
    143 C46        -8.1940   -3.6360   -2.3130 c3        1 MOL     -0.038513
    144 C47        -6.8980   -4.2220   -1.7100 c         1 MOL      0.431790
    145 O19        -6.8420   -5.4140   -1.6450 o         1 MOL     -0.512503
    146 C48        -8.1540   -3.3790   -3.8690 c3        1 MOL     -0.281162
    147 H67        -8.5510   -1.5450   -2.2150 hn        1 MOL      0.247796
    148 H68        -9.0540   -4.2810   -2.1010 h1        1 MOL      0.125669
    149 H69        -7.3470   -2.7040   -4.1470 hc        1 MOL      0.084405
    150 H70        -7.9640   -4.3080   -4.4020 hc        1 MOL      0.084405
    151 H71        -9.1180   -2.9700   -4.1780 hc        1 MOL      0.084405
    152 N14        -5.9460   -3.4250   -1.2610 n         1 MOL     -0.078875
    153 C49        -4.6840   -3.8880   -0.6840 c3        1 MOL     -0.063024
    154 C50        -4.8590   -4.4170    0.7360 c         1 MOL      0.339417
    155 O20        -4.3810   -5.4760    1.1060 o         1 MOL     -0.544605
    156 C51        -3.6960   -2.7070   -0.7030 c3        1 MOL      0.140816
    157 C52        -3.1890   -2.2560   -2.0900 c3        1 MOL     -0.254884
    158 C53        -2.4690   -0.9350   -1.8750 c         1 MOL      0.717624
    159 O21        -1.2780   -0.9380   -1.4240 o         1 MOL     -0.683393
    160 O22        -3.0960    0.1400   -2.2530 o         1 MOL     -0.683393
    161 H72        -6.1220   -2.4410   -1.4180 hn        1 MOL      0.125921
    162 H73        -4.2830   -4.6580   -1.3440 h1        1 MOL      0.093647
    163 H74        -2.7860   -2.9170   -0.1500 hc        1 MOL     -0.002423
    164 H75        -4.1860   -1.8670   -0.2130 hc        1 MOL     -0.002423
    165 H76        -4.0950   -2.1220   -2.6850 hc        1 MOL      0.054130
    166 H77        -2.6120   -3.0660   -2.5470 hc        1 MOL      0.054130
    167 N15        -5.6990   -3.7710    1.4660 n         1 MOL      0.107815
    168 C54        -6.0500   -4.1820    2.8110 c3        1 MOL     -0.418237
    169 H78        -7.0980   -3.9450    3.0010 h1        1 MOL      0.139242
    170 H79        -5.8970   -5.2560    2.9160 h1        1 MOL      0.139242
    171 H80        -5.4230   -3.6530    3.5290 h1        1 MOL      0.139242
    172 H81        -6.0060   -2.8700    1.1510 hn        1 MOL      0.040897
    173 Ca1         0.6990    0.6270   -1.5210 Ca        1 MOL      1.769546
    174 O23         0.5710    1.3720   -4.0530 oh        1 MOL     -0.855913
    175 H82         1.0080    1.2240   -4.8910 ho        1 MOL      0.412554
    176 H83        -0.1010    2.0240   -4.2500 ho        1 MOL      0.412554
    177 O24        -1.3360    2.1490   -1.8660 oh        1 MOL     -0.855913
    178 H84        -2.1110    1.6050   -2.0010 ho        1 MOL      0.412554
    179 H85        -1.6380    3.0380   -2.0750 ho        1 MOL      0.412554
@<TRIPOS>BOND
     1    1    2 1   
     2    1    4 1   
     3    1    5 1   
     4    1    6 1   
     5    2    3 2   
     6    2    7 1   
     7    7    8 1   
     8    7   15 1   
     9    8    9 1   
    10    8   11 1   
    11    8   16 1   
    12    9   10 2   
    13    9   19 1   
    14   11   12 1   
    15   11   17 1   
    16   11   18 1   
    17   12   13 1   
    18   12   14 1   
    19   19   20 1   
    20   19   28 1   
    21   20   21 1   
    22   20   23 1   
    23   20   29 1   
    24   21   22 2   
    25   21   41 1   
    26   23   24 1   
    27   23   30 1   
    28   23   31 1   
    29   24   25 1   
    30   24   32 1   
    31   24   33 1   
    32   25   26 1   
    33   25   34 1   
    34   25   35 1   
    35   26   27 1   
    36   26   36 1   
    37   26   37 1   
    38   27   38 1   
    39   27   39 1   
    40   27   40 1   
    41   41   42 1   
    42   41   49 1   
    43   42   43 1   
    44   42   45 1   
    45   42   50 1   
    46   43   44 2   
    47   43   53 1   
    48   45   46 1   
    49   45   51 1   
    50   45   52 1   
    51   46   47 1   
    52   46   48 1   
    53   53   54 1   
    54   53   57 1   
    55   54   55 1   
    56   54   58 1   
    57   54   59 1   
    58   55   56 2   
    59   55   60 1   
    60   60   61 1   
    61   60   68 1   
    62   61   62 1   
    63   61   64 1   
    64   61   69 1   
    65   62   63 2   
    66   62   74 1   
    67   64   65 1   
    68   64   70 1   
    69   64   71 1   
    70   65   66 1   
    71   65   67 2   
    72   66   72 1   
    73   66   73 1   
    74   74   75 1   
    75   74   78 1   
    76   75   76 1   
    77   75   79 1   
    78   75   80 1   
    79   76   77 2   
    80   76   81 1   
    81   81   82 1   
    82   81   93 1   
    83   82   83 1   
    84   82   85 1   
    85   82   94 1   
    86   83   84 2   
    87   83  102 1   
    88   85   86 1   
    89   85   95 1   
    90   85   96 1   
    91   86   87 ar  
    92   86   88 ar  
    93   87   89 ar  
    94   87   97 1   
    95   88   90 ar  
    96   88   98 1   
    97   89   91 ar  
    98   89   99 1   
    99   90   91 ar  
   100   90  100 1   
   101   91   92 1   
   102   92  101 1   
   103  102  103 1   
   104  102  110 1   
   105  103  104 1   
   106  103  106 1   
   107  103  111 1   
   108  104  105 2   
   109  104  121 1   
   110  106  107 1   
   111  106  108 1   
   112  106  112 1   
   113  107  109 1   
   114  107  113 1   
   115  107  114 1   
   116  108  115 1   
   117  108  116 1   
   118  108  117 1   
   119  109  118 1   
   120  109  119 1   
   121  109  120 1   
   122  121  122 1   
   123  121  127 1   
   124  122  123 1   
   125  122  125 1   
   126  122  128 1   
   127  123  124 2   
   128  123  132 1   
   129  125  126 1   
   130  125  129 1   
   131  125  130 1   
   132  126  131 1   
   133  132  133 1   
   134  132  137 1   
   135  133  134 1   
   136  133  136 1   
   137  133  138 1   
   138  134  135 2   
   139  134  142 1   
   140  136  139 1   
   141  136  140 1   
   142  136  141 1   
   143  142  143 1   
   144  142  147 1   
   145  143  144 1   
   146  143  146 1   
   147  143  148 1   
   148  144  145 2   
   149  144  152 1   
   150  146  149 1   
   151  146  150 1   
   152  146  151 1   
   153  152  153 1   
   154  152  161 1   
   155  153  154 1   
   156  153  156 1   
   157  153  162 1   
   158  154  155 2   
   159  154  167 1   
   160  156  157 1   
   161  156  163 1   
   162  156  164 1   
   163  157  158 1   
   164  157  165 1   
   165  157  166 1   
   166  158  159 1   
   167  158  160 1   
   168  167  168 1   
   169  167  172 1   
   170  168  169 1   
   171  168  170 1   
   172  168  171 1   
   173  174  175 1   
   174  174  176 1   
   175  177  178 1   
   176  177  179 1   
@<TRIPOS>SUBSTRUCTURE
     1 MOL         1 TEMP              0 ****  ****    0 ROOT
