@<TRIPOS>MOLECULE
MOL
  183   181     1     0     0
SMALL
resp


@<TRIPOS>ATOM
      1 C1         -0.9640    2.0040    6.4630 c3        1 MOL     -0.302155
      2 C2         -1.3030    2.1370    4.9800 c         1 MOL      0.840491
      3 O1         -0.6660    2.8910    4.3520 o         1 MOL     -0.605556
      4 H1         -0.1790    1.2600    6.5910 hc        1 MOL      0.052555
      5 H2         -0.6190    2.9660    6.8450 hc        1 MOL      0.052555
      6 H3         -1.8530    1.6930    7.0130 hc        1 MOL      0.052555
      7 N1         -2.2690    1.3330    4.4650 n         1 MOL     -0.712486
      8 C3         -2.7270    1.2490    3.0960 c3        1 MOL      0.198807
      9 C4         -3.2150    2.6310    2.7330 c         1 MOL      0.418350
     10 O2         -4.0870    3.1800    3.3860 o         1 MOL     -0.564654
     11 C5         -3.8790    0.1980    3.0760 c3        1 MOL     -0.233490
     12 C6         -4.5710   -0.0050    1.6960 c         1 MOL      0.842804
     13 O3         -5.6350   -0.6700    1.7360 o         1 MOL     -0.698588
     14 O4         -4.0170    0.4260    0.6800 o         1 MOL     -0.698588
     15 H4         -2.6730    0.6980    5.1320 hn        1 MOL      0.328740
     16 H5         -1.9160    0.9530    2.4420 h1        1 MOL      0.027383
     17 H6         -4.6610    0.5200    3.7740 hc        1 MOL      0.044319
     18 H7         -3.5160   -0.7120    3.5450 hc        1 MOL      0.044319
     19 N2         -2.7010    3.2200    1.6640 n         1 MOL     -0.142606
     20 C7         -2.9960    4.5310    1.1970 c3        1 MOL      0.038844
     21 C8         -4.1540    4.6250    0.1470 c         1 MOL      0.482603
     22 O5         -4.9850    5.4800    0.3790 o         1 MOL     -0.588542
     23 C9         -1.5980    5.1380    0.6640 c3        1 MOL      0.186608
     24 C10        -0.4710    4.8800    1.7040 c3        1 MOL      0.203371
     25 C11        -1.7130    6.6070    0.2090 c3        1 MOL     -0.416823
     26 C12         0.9170    5.6050    1.4710 c3        1 MOL     -0.108490
     27 H8         -2.0340    2.6740    1.1380 hn        1 MOL      0.165017
     28 H9         -3.3540    5.1290    2.0330 h1        1 MOL      0.025883
     29 H10        -1.2830    4.5820   -0.2260 hc        1 MOL     -0.014155
     30 H11        -0.2160    3.8200    1.6970 hc        1 MOL     -0.049669
     31 H12        -0.8570    5.2240    2.6630 hc        1 MOL     -0.049669
     32 H13        -2.4350    6.6190   -0.6080 hc        1 MOL      0.082697
     33 H14        -1.9560    7.1810    1.1040 hc        1 MOL      0.082697
     34 H15        -0.7980    7.0210   -0.2280 hc        1 MOL      0.082697
     35 H16         0.8400    6.6920    1.5040 hc        1 MOL      0.008711
     36 H17         1.4760    5.2860    2.3470 hc        1 MOL      0.008711
     37 H18         1.5290    5.3540    0.6020 hc        1 MOL      0.008711
     38 N3         -4.1610    3.7540   -0.8510 n         1 MOL     -0.330707
     39 C13        -5.0570    3.8530   -2.0100 c3        1 MOL     -0.017969
     40 C14        -6.3380    3.0530   -1.8300 c         1 MOL      0.533197
     41 O6         -7.3420    3.4200   -2.3770 o         1 MOL     -0.581751
     42 C15        -4.2780    3.4300   -3.3070 c3        1 MOL     -0.267928
     43 C16        -3.3220    2.2200   -3.2450 c         1 MOL      0.779816
     44 O7         -2.4100    2.1700   -4.1160 o         1 MOL     -0.698397
     45 O8         -3.4290    1.3870   -2.3220 o         1 MOL     -0.698397
     46 H19        -3.3800    3.1210   -0.7550 hn        1 MOL      0.266861
     47 H20        -5.2340    4.9180   -2.1820 h1        1 MOL      0.094580
     48 H21        -3.6420    4.2980   -3.4710 hc        1 MOL      0.071397
     49 H22        -4.9600    3.3900   -4.1540 hc        1 MOL      0.071397
     50 N4         -6.3020    2.0900   -0.8710 n         1 MOL     -0.013513
     51 C17        -7.5330    1.3800   -0.4920 c3        1 MOL     -0.335752
     52 C18        -7.7010    0.1480   -1.3940 c         1 MOL      0.687823
     53 O9         -8.3910    0.1450   -2.4210 o         1 MOL     -0.583797
     54 H23        -5.3770    1.8740   -0.5340 hn        1 MOL      0.031237
     55 H24        -8.4200    2.0060   -0.5810 h1        1 MOL      0.107045
     56 H25        -7.4260    1.1800    0.5670 h1        1 MOL      0.107045
     57 N5         -7.0860   -0.9360   -0.9710 n         1 MOL     -0.551635
     58 C19        -7.1960   -2.3150   -1.5570 c3        1 MOL      0.038060
     59 C20        -6.9340   -3.3910   -0.4710 c         1 MOL      0.465385
     60 O10        -6.7940   -4.5690   -0.7570 o         1 MOL     -0.541022
     61 C21        -6.1870   -2.3990   -2.6970 c3        1 MOL     -0.236218
     62 C22        -4.7750   -2.0320   -2.2460 c         1 MOL      0.726487
     63 O11        -4.0030   -1.4860   -3.0740 o         1 MOL     -0.700523
     64 O12        -4.4220   -2.2360   -1.0840 o         1 MOL     -0.700523
     65 H26        -6.3710   -0.7630   -0.2830 hn        1 MOL      0.315894
     66 H27        -8.2520   -2.5050   -1.7500 h1        1 MOL      0.084047
     67 H28        -6.5030   -1.6740   -3.4520 hc        1 MOL      0.078305
     68 H29        -6.1840   -3.3420   -3.2370 hc        1 MOL      0.078305
     69 N6         -6.8850   -2.9290    0.7970 n         1 MOL     -0.304725
     70 C23        -6.5230   -3.7740    1.9730 c3        1 MOL     -0.167338
     71 C24        -5.1810   -4.4540    1.8970 c         1 MOL      0.549193
     72 O13        -4.8950   -5.3590    2.6580 o         1 MOL     -0.626104
     73 H30        -7.0190   -1.9410    0.9580 hn        1 MOL      0.244385
     74 H31        -7.2030   -4.6150    2.1110 h1        1 MOL      0.096547
     75 H32        -6.4720   -3.1620    2.8720 h1        1 MOL      0.096547
     76 N7         -4.2410   -4.1170    1.0110 n         1 MOL     -0.049131
     77 C25        -2.8290   -4.4770    1.0890 c3        1 MOL     -0.027823
     78 C26        -1.8440   -3.3410    1.2640 c         1 MOL      0.685630
     79 O14        -2.2100   -2.2000    1.0260 o         1 MOL     -0.695944
     80 C27        -2.3790   -5.2830   -0.1500 c3        1 MOL      0.003192
     81 C28        -2.6920   -4.9310   -1.6350 c3        1 MOL     -0.074914
     82 C29        -1.7060   -3.9410   -2.2760 c         1 MOL      0.607771
     83 N8         -1.3270   -4.1790   -3.4600 n         1 MOL     -0.679994
     84 O15        -1.2560   -2.9060   -1.7440 o         1 MOL     -0.626403
     85 H33        -4.4680   -3.3990    0.3250 hn        1 MOL      0.050318
     86 H34        -2.7260   -5.0060    2.0340 h1        1 MOL      0.048554
     87 H35        -2.7810   -6.2860    0.0280 hc        1 MOL     -0.018542
     88 H36        -1.3010   -5.4050   -0.0850 hc        1 MOL     -0.018542
     89 H37        -3.7440   -4.6720   -1.7470 hc        1 MOL      0.034817
     90 H38        -2.5170   -5.8540   -2.1790 hc        1 MOL      0.034817
     91 H39        -1.4460   -5.0790   -3.8970 hn        1 MOL      0.332165
     92 H40        -0.6560   -3.5170   -3.8400 hn        1 MOL      0.332165
     93 N9         -0.6660   -3.6450    1.8770 n         1 MOL     -0.471158
     94 C30         0.4370   -2.6730    2.1020 c3        1 MOL      0.011918
     95 C31         1.6350   -3.0660    1.2450 c         1 MOL      0.417054
     96 O16         2.3810   -3.9840    1.5630 o         1 MOL     -0.542169
     97 C32         0.6840   -2.5120    3.5880 c3        1 MOL      0.348507
     98 C33         1.7450   -1.5200    3.8740 c3        1 MOL     -0.417759
     99 C34        -0.6280   -2.0890    4.2450 c3        1 MOL     -0.417759
    100 H41        -0.4750   -4.5690    2.2350 hn        1 MOL      0.268301
    101 H42         0.0520   -1.6770    1.8760 h1        1 MOL      0.162573
    102 H43         1.0240   -3.4860    3.9310 hc        1 MOL     -0.060434
    103 H44         2.7590   -1.9350    3.7500 hc        1 MOL      0.091438
    104 H45         1.5510   -0.5990    3.3310 hc        1 MOL      0.091438
    105 H46         1.7100   -1.3920    4.9590 hc        1 MOL      0.091438
    106 H47        -1.0360   -1.1710    3.8290 hc        1 MOL      0.091438
    107 H48        -1.3490   -2.8950    4.1380 hc        1 MOL      0.091438
    108 H49        -0.4470   -1.8840    5.3060 hc        1 MOL      0.091438
    109 N10         1.8040   -2.3220    0.1100 n         1 MOL     -0.258824
    110 C35         3.0530   -2.4260   -0.7780 c3        1 MOL      0.005040
    111 C36         4.3850   -1.9550   -0.1880 c         1 MOL      0.571647
    112 O17         4.3350   -1.1910    0.7760 o         1 MOL     -0.464501
    113 C37         2.7740   -1.6210   -2.0880 c3        1 MOL     -0.272018
    114 C38         3.6500   -1.9480   -3.2050 c         1 MOL      0.717909
    115 N11         3.1180   -2.6450   -4.1690 n         1 MOL     -0.812812
    116 O18         4.8650   -1.6370   -3.3180 o         1 MOL     -0.584574
    117 H50         1.1130   -1.6190   -0.1240 hn        1 MOL      0.219032
    118 H51         3.1900   -3.4610   -1.0920 h1        1 MOL      0.044857
    119 H52         2.8740   -0.5440   -1.9360 hc        1 MOL      0.092977
    120 H53         1.7280   -1.6650   -2.3920 hc        1 MOL      0.092977
    121 H54         2.1320   -2.8410   -4.1370 hn        1 MOL      0.377816
    122 H55         3.6530   -2.9290   -4.9850 hn        1 MOL      0.377816
    123 N12         5.5320   -2.3140   -0.6670 n         1 MOL     -0.606368
    124 C39         6.8680   -1.7400   -0.2310 c3        1 MOL      0.201623
    125 C40         6.9290   -0.1960   -0.2160 c         1 MOL      0.707356
    126 O19         7.4400    0.3790    0.7240 o         1 MOL     -0.532902
    127 C41         7.9690   -2.3000   -1.1730 c3        1 MOL     -0.079557
    128 C42         9.3260   -1.8920   -0.7060 ca        1 MOL     -0.080219
    129 C43         9.7320   -2.3950    0.5990 ca        1 MOL     -0.150223
    130 C44        10.0700   -0.8820   -1.2310 ca        1 MOL     -0.150223
    131 C45        10.9830   -2.0350    1.1880 ca        1 MOL     -0.199544
    132 C46        11.2760   -0.4560   -0.7040 ca        1 MOL     -0.199544
    133 C47        11.7400   -1.0330    0.4810 ca        1 MOL      0.247454
    134 O20        12.8390   -0.5350    1.1100 oh        1 MOL     -0.469933
    135 H56         5.4920   -2.8950   -1.4960 hn        1 MOL      0.296964
    136 H57         7.1150   -1.9630    0.8110 h1        1 MOL      0.045883
    137 H58         7.7910   -2.0360   -2.2180 hc        1 MOL      0.058241
    138 H59         7.8870   -3.3920   -1.1600 hc        1 MOL      0.058241
    139 H60         9.0300   -3.0220    1.1240 ha        1 MOL      0.127589
    140 H61         9.7500   -0.4130   -2.1530 ha        1 MOL      0.127589
    141 H62        11.2970   -2.4630    2.1300 ha        1 MOL      0.135878
    142 H63        11.7840    0.3180   -1.2560 ha        1 MOL      0.135878
    143 H64        13.3810   -0.0410    0.4880 ho        1 MOL      0.346554
    144 N13         6.2240    0.3770   -1.1690 n         1 MOL     -0.512720
    145 C48         6.0590    1.8200   -1.4350 c3        1 MOL     -0.038182
    146 C49         5.2320    2.4850   -0.2720 c         1 MOL      0.249943
    147 O21         5.5740    3.6100    0.1000 o         1 MOL     -0.498514
    148 C50         5.2980    1.9130   -2.7690 c3        1 MOL      0.034437
    149 C51         5.1010    3.3960   -3.2790 c3        1 MOL     -0.290087
    150 C52         4.2240    3.4250   -4.5760 c         1 MOL      0.654285
    151 O22         3.0170    3.7600   -4.3620 o         1 MOL     -0.715821
    152 O23         4.7110    2.8950   -5.5980 o         1 MOL     -0.715821
    153 H65         5.6520   -0.2720   -1.6980 hn        1 MOL      0.190258
    154 H66         7.0150    2.3340   -1.5820 h1        1 MOL      0.111660
    155 H67         4.3640    1.3590   -2.7380 hc        1 MOL      0.052367
    156 H68         5.9800    1.4390   -3.4740 hc        1 MOL      0.052367
    157 H69         6.0860    3.8220   -3.4780 hc        1 MOL      0.048653
    158 H70         4.6990    4.0770   -2.5350 hc        1 MOL      0.048653
    159 N14         4.2690    1.7910    0.2660 n         1 MOL      0.034883
    160 C53         3.4780    2.1750    1.3290 c3        1 MOL     -0.310506
    161 C54         4.1680    1.8390    2.6830 c         1 MOL      0.542615
    162 O24         4.0010    2.5410    3.6980 o         1 MOL     -0.554637
    163 C55         2.0530    1.5180    1.2590 c3        1 MOL      0.149476
    164 C56         1.2420    1.8270   -0.0020 c3        1 MOL      0.084335
    165 C57        -0.0490    1.0490    0.0270 c         1 MOL      0.577328
    166 O25        -1.1000    1.6930   -0.0100 o         1 MOL     -0.723362
    167 O26        -0.0810   -0.2200   -0.1610 o         1 MOL     -0.723362
    168 H71         4.0060    0.8820   -0.0960 hn        1 MOL      0.327040
    169 H72         3.3150    3.2440    1.3640 h1        1 MOL      0.125381
    170 H73         1.3790    1.7540    2.0820 hc        1 MOL     -0.006474
    171 H74         2.3370    0.4680    1.2320 hc        1 MOL     -0.006474
    172 H75         1.8580    1.5540   -0.8630 hc        1 MOL     -0.011662
    173 H76         1.1070    2.9000   -0.1370 hc        1 MOL     -0.011662
    174 N15         4.9580    0.6920    2.6460 n         1 MOL     -0.066690
    175 C58         5.7020    0.2910    3.8220 c3        1 MOL     -0.472086
    176 H77         5.8570   -0.7880    3.8030 h1        1 MOL      0.142590
    177 H78         6.6690    0.7960    3.8300 h1        1 MOL      0.142590
    178 H79         5.1430    0.5620    4.7170 h1        1 MOL      0.142590
    179 H80         5.2350    0.3600    1.7360 hn        1 MOL      0.052073
    180 Ca1        -2.3900   -0.5680   -1.1150 Ca        1 MOL      1.790555
    181 O27        -0.9890    0.2760   -3.3530 oh        1 MOL     -0.948216
    182 H81        -0.1210    0.6700   -3.4520 ho        1 MOL      0.438536
    183 H82        -1.5880    0.8970   -3.7700 ho        1 MOL      0.438536
@<TRIPOS>BOND
     1    1    2 1   
     2    1    4 1   
     3    1    5 1   
     4    1    6 1   
     5    2    3 2   
     6    2    7 1   
     7    7    8 1   
     8    7   15 1   
     9    8    9 1   
    10    8   11 1   
    11    8   16 1   
    12    9   10 2   
    13    9   19 1   
    14   11   12 1   
    15   11   17 1   
    16   11   18 1   
    17   12   13 1   
    18   12   14 1   
    19   19   20 1   
    20   19   27 1   
    21   20   21 1   
    22   20   23 1   
    23   20   28 1   
    24   21   22 2   
    25   21   38 1   
    26   23   24 1   
    27   23   25 1   
    28   23   29 1   
    29   24   26 1   
    30   24   30 1   
    31   24   31 1   
    32   25   32 1   
    33   25   33 1   
    34   25   34 1   
    35   26   35 1   
    36   26   36 1   
    37   26   37 1   
    38   38   39 1   
    39   38   46 1   
    40   39   40 1   
    41   39   42 1   
    42   39   47 1   
    43   40   41 2   
    44   40   50 1   
    45   42   43 1   
    46   42   48 1   
    47   42   49 1   
    48   43   44 1   
    49   43   45 1   
    50   50   51 1   
    51   50   54 1   
    52   51   52 1   
    53   51   55 1   
    54   51   56 1   
    55   52   53 2   
    56   52   57 1   
    57   57   58 1   
    58   57   65 1   
    59   58   59 1   
    60   58   61 1   
    61   58   66 1   
    62   59   60 2   
    63   59   69 1   
    64   61   62 1   
    65   61   67 1   
    66   61   68 1   
    67   62   63 1   
    68   62   64 1   
    69   69   70 1   
    70   69   73 1   
    71   70   71 1   
    72   70   74 1   
    73   70   75 1   
    74   71   72 2   
    75   71   76 1   
    76   76   77 1   
    77   76   85 1   
    78   77   78 1   
    79   77   80 1   
    80   77   86 1   
    81   78   79 2   
    82   78   93 1   
    83   80   81 1   
    84   80   87 1   
    85   80   88 1   
    86   81   82 1   
    87   81   89 1   
    88   81   90 1   
    89   82   83 1   
    90   82   84 2   
    91   83   91 1   
    92   83   92 1   
    93   93   94 1   
    94   93  100 1   
    95   94   95 1   
    96   94   97 1   
    97   94  101 1   
    98   95   96 2   
    99   95  109 1   
   100   97   98 1   
   101   97   99 1   
   102   97  102 1   
   103   98  103 1   
   104   98  104 1   
   105   98  105 1   
   106   99  106 1   
   107   99  107 1   
   108   99  108 1   
   109  109  110 1   
   110  109  117 1   
   111  110  111 1   
   112  110  113 1   
   113  110  118 1   
   114  111  112 2   
   115  111  123 1   
   116  113  114 1   
   117  113  119 1   
   118  113  120 1   
   119  114  115 1   
   120  114  116 2   
   121  115  121 1   
   122  115  122 1   
   123  123  124 1   
   124  123  135 1   
   125  124  125 1   
   126  124  127 1   
   127  124  136 1   
   128  125  126 2   
   129  125  144 1   
   130  127  128 1   
   131  127  137 1   
   132  127  138 1   
   133  128  129 ar  
   134  128  130 ar  
   135  129  131 ar  
   136  129  139 1   
   137  130  132 ar  
   138  130  140 1   
   139  131  133 ar  
   140  131  141 1   
   141  132  133 ar  
   142  132  142 1   
   143  133  134 1   
   144  134  143 1   
   145  144  145 1   
   146  144  153 1   
   147  145  146 1   
   148  145  148 1   
   149  145  154 1   
   150  146  147 2   
   151  146  159 1   
   152  148  149 1   
   153  148  155 1   
   154  148  156 1   
   155  149  150 1   
   156  149  157 1   
   157  149  158 1   
   158  150  151 1   
   159  150  152 1   
   160  159  160 1   
   161  159  168 1   
   162  160  161 1   
   163  160  163 1   
   164  160  169 1   
   165  161  162 2   
   166  161  174 1   
   167  163  164 1   
   168  163  170 1   
   169  163  171 1   
   170  164  165 1   
   171  164  172 1   
   172  164  173 1   
   173  165  166 1   
   174  165  167 1   
   175  174  175 1   
   176  174  179 1   
   177  175  176 1   
   178  175  177 1   
   179  175  178 1   
   180  181  182 1   
   181  181  183 1   
@<TRIPOS>SUBSTRUCTURE
     1 MOL         1 TEMP              0 ****  ****    0 ROOT
