@<TRIPOS>MOLECULE
MOL
  189   185     1     0     0
SMALL
resp


@<TRIPOS>ATOM
      1 C1          0.6430    4.2040   -4.9430 c3        1 MOL     -0.331211
      2 C2          0.7830    3.4330   -3.6130 c         1 MOL      0.763327
      3 O1          0.0540    3.6180   -2.6490 o         1 MOL     -0.641313
      4 H1          0.0160    5.0820   -4.7890 hc        1 MOL      0.078382
      5 H2          1.6280    4.5180   -5.2870 hc        1 MOL      0.078382
      6 H3          0.1850    3.5570   -5.6920 hc        1 MOL      0.078382
      7 N1          1.8680    2.7050   -3.4990 n         1 MOL     -0.602344
      8 C3          2.3070    2.1840   -2.1980 c3        1 MOL      0.214619
      9 C4          3.0720    3.2310   -1.3730 c         1 MOL      0.310780
     10 O2          4.0050    3.8790   -1.8600 o         1 MOL     -0.520829
     11 C5          3.1500    0.9030   -2.4240 c3        1 MOL     -0.068174
     12 C6          3.9020    0.3910   -1.1850 c         1 MOL      0.570289
     13 O3          3.2940    0.4140   -0.0920 o         1 MOL     -0.672461
     14 O4          5.0250   -0.1810   -1.2950 o         1 MOL     -0.672461
     15 H4          2.4710    2.6150   -4.3130 hn        1 MOL      0.315397
     16 H5          1.4230    1.8510   -1.6670 h1        1 MOL      0.049128
     17 H6          3.8410    0.9980   -3.2510 hc        1 MOL      0.009890
     18 H7          2.4110    0.1780   -2.7740 hc        1 MOL      0.009890
     19 N2          2.4800    3.4160   -0.1870 n         1 MOL     -0.112050
     20 C7          3.0020    4.5500    0.6180 c3        1 MOL      0.043808
     21 C8          4.1670    4.1840    1.5140 c         1 MOL      0.439322
     22 O5          5.0900    4.9480    1.5400 o         1 MOL     -0.529335
     23 C9          1.8170    5.1830    1.3700 c3        1 MOL     -0.108036
     24 C10         0.7550    5.6930    0.3880 c3        1 MOL      0.056449
     25 C11         1.2070    6.7970   -0.5460 c3        1 MOL     -0.073515
     26 C12         0.1700    7.2930   -1.4730 c3        1 MOL      0.154353
     27 N3          0.7410    8.3040   -2.4600 n4        1 MOL     -0.501946
     28 H8          1.6860    2.9040    0.1770 hn        1 MOL      0.206287
     29 H9          3.3220    5.3340   -0.0670 h1        1 MOL      0.022251
     30 H10         2.1790    5.9690    2.0250 hc        1 MOL      0.036819
     31 H11         1.2850    4.4280    1.9590 hc        1 MOL      0.036819
     32 H12        -0.0710    6.1600    0.9160 hc        1 MOL      0.005282
     33 H13         0.2820    4.8730   -0.1560 hc        1 MOL      0.005282
     34 H14         2.0770    6.3870   -1.0560 hc        1 MOL      0.037044
     35 H15         1.5440    7.6480    0.0490 hc        1 MOL      0.037044
     36 H16        -0.6480    7.7700   -0.9240 hx        1 MOL      0.055373
     37 H17        -0.3020    6.4250   -1.9220 hx        1 MOL      0.055373
     38 H18        -0.0140    8.6150   -3.0580 hn        1 MOL      0.354518
     39 H19         1.1840    9.1110   -2.0320 hn        1 MOL      0.354518
     40 H20         1.4300    7.8990   -3.0710 hn        1 MOL      0.354518
     41 N4          4.0680    3.0250    2.1250 n         1 MOL     -0.097618
     42 C13         5.0240    2.5310    3.0910 c3        1 MOL     -0.284657
     43 C14         6.3820    2.3490    2.3900 c         1 MOL      0.529253
     44 O6          7.4670    2.5730    2.9570 o         1 MOL     -0.529648
     45 C15         4.5670    1.1940    3.6850 c3        1 MOL      0.011380
     46 C16         3.1010    1.2110    4.0420 c         1 MOL      0.633116
     47 O7          2.3650    0.8430    3.1190 o         1 MOL     -0.645812
     48 O8          2.7040    1.3670    5.1960 o         1 MOL     -0.645812
     49 H21         3.3280    2.4670    1.7280 hn        1 MOL      0.081115
     50 H22         5.0400    3.3070    3.8590 h1        1 MOL      0.136082
     51 H23         5.0730    0.9280    4.6100 hc        1 MOL      0.028435
     52 H24         4.7070    0.4660    2.8820 hc        1 MOL      0.028435
     53 N5          6.3130    1.8360    1.1400 n         1 MOL     -0.377947
     54 C17         7.5270    1.2060    0.4760 c3        1 MOL     -0.128093
     55 C18         7.6330   -0.2890    0.7120 c         1 MOL      0.466135
     56 O9          8.7250   -0.8100    0.3820 o         1 MOL     -0.591005
     57 H25         5.4660    1.7870    0.5980 hn        1 MOL      0.316641
     58 H26         8.4610    1.6670    0.7890 h1        1 MOL      0.116009
     59 H27         7.4860    1.4470   -0.5900 h1        1 MOL      0.116009
     60 N6          6.6380   -0.9820    1.2450 n         1 MOL     -0.157662
     61 C19         6.6550   -2.3520    1.5880 c3        1 MOL     -0.151193
     62 C20         6.4960   -3.2690    0.3630 c         1 MOL      0.476415
     63 O10         6.6390   -4.4930    0.5490 o         1 MOL     -0.562652
     64 C21         5.6190   -2.6280    2.6770 c3        1 MOL     -0.084358
     65 C22         4.1980   -2.2800    2.2190 c         1 MOL      0.547203
     66 O11         3.5180   -1.7760    3.1240 o         1 MOL     -0.609810
     67 O12         3.7530   -2.5680    1.0880 o         1 MOL     -0.609810
     68 H28         5.8210   -0.4090    1.3630 hn        1 MOL      0.184078
     69 H29         7.6420   -2.5480    2.0040 h1        1 MOL      0.135788
     70 H30         5.8730   -2.0190    3.5370 hc        1 MOL      0.049867
     71 H31         5.7440   -3.6520    3.0520 hc        1 MOL      0.049867
     72 N7          6.3600   -2.7430   -0.8150 n         1 MOL     -0.202036
     73 C23         6.1630   -3.5830   -2.0450 c3        1 MOL     -0.241054
     74 C24         4.7130   -4.1540   -2.3580 c         1 MOL      0.547246
     75 O13         4.6280   -5.1050   -3.1730 o         1 MOL     -0.549472
     76 H32         6.2420   -1.7620   -1.0130 hn        1 MOL      0.276113
     77 H33         6.8800   -4.3880   -2.1420 h1        1 MOL      0.115491
     78 H34         6.3320   -2.8740   -2.8610 h1        1 MOL      0.115491
     79 N8          3.6950   -3.6600   -1.6540 n         1 MOL     -0.346212
     80 C25         2.4170   -4.3760   -1.4870 c3        1 MOL     -0.285848
     81 C26         1.3010   -3.2970   -1.3960 c         1 MOL      0.528469
     82 O14         1.5380   -2.2010   -0.7570 o         1 MOL     -0.579681
     83 C27         2.3850   -5.4180   -0.3540 c3        1 MOL      0.468916
     84 C28         3.4890   -6.4590   -0.3200 c3        1 MOL     -0.489798
     85 O15         2.3570   -4.7950    0.8260 oh        1 MOL     -0.613570
     86 H35         3.8550   -2.9570   -0.9540 hn        1 MOL      0.328459
     87 H36         2.2540   -4.9260   -2.4190 h1        1 MOL      0.116476
     88 H37         1.4170   -5.9310   -0.3700 h1        1 MOL     -0.029316
     89 H38         2.9520   -4.0450    0.8880 ho        1 MOL      0.401661
     90 H39         3.2470   -7.2500    0.3870 hc        1 MOL      0.136014
     91 H40         3.5070   -6.7950   -1.3530 hc        1 MOL      0.136014
     92 H41         4.4000   -6.0240    0.0860 hc        1 MOL      0.136014
     93 N9          0.1600   -3.5740   -1.9790 n         1 MOL     -0.373400
     94 C29        -0.9190   -2.6180   -2.1250 c3        1 MOL      0.127042
     95 C30        -2.1480   -3.0450   -1.4060 c         1 MOL      0.376096
     96 O16        -2.7590   -4.0300   -1.8180 o         1 MOL     -0.533636
     97 C31        -1.1470   -2.2860   -3.5770 c3        1 MOL      0.035704
     98 C32         0.1550   -1.5540   -4.1060 c3        1 MOL      0.050684
     99 C33        -2.4310   -1.4200   -3.8980 c3        1 MOL     -0.091382
    100 C34         0.0130   -0.8820   -5.5450 c3        1 MOL     -0.316585
    101 H42         0.0900   -4.3890   -2.5780 hn        1 MOL      0.271718
    102 H43        -0.5510   -1.6970   -1.6710 h1        1 MOL      0.019149
    103 H44        -1.1320   -3.2290   -4.1070 hc        1 MOL      0.020594
    104 H45         0.8540   -2.3850   -4.1840 hc        1 MOL      0.025116
    105 H46         0.4500   -0.7770   -3.4020 hc        1 MOL      0.025116
    106 H47        -2.7570   -1.5040   -4.9380 hc        1 MOL      0.011699
    107 H48        -3.2750   -1.8370   -3.3510 hc        1 MOL      0.011699
    108 H49        -2.3020   -0.3790   -3.6090 hc        1 MOL      0.011699
    109 H50        -0.4460    0.1020   -5.4700 hc        1 MOL      0.080840
    110 H51         0.9900   -0.9260   -6.0200 hc        1 MOL      0.080840
    111 H52        -0.5940   -1.4650   -6.2400 hc        1 MOL      0.080840
    112 N10        -2.5670   -2.3260   -0.3350 n         1 MOL     -0.066002
    113 C35        -3.7710   -2.6520    0.3960 c3        1 MOL     -0.154159
    114 C36        -5.0750   -2.2890   -0.3790 c         1 MOL      0.320615
    115 O17        -4.9750   -1.4530   -1.2260 o         1 MOL     -0.218482
    116 C37        -3.8070   -1.9800    1.7710 c3        1 MOL      0.188518
    117 C38        -2.8590   -2.4820    2.8070 c3        1 MOL     -0.412428
    118 O18        -3.6390   -0.5960    1.6780 oh        1 MOL     -0.536400
    119 H53        -2.0310   -1.5330   -0.0040 hn        1 MOL      0.085248
    120 H54        -3.7040   -3.7270    0.5620 h1        1 MOL      0.104968
    121 H55        -4.8070   -2.1210    2.1820 h1        1 MOL      0.041711
    122 H56        -2.6900   -0.5310    1.8420 ho        1 MOL      0.385768
    123 H57        -2.9740   -3.5480    2.9860 hc        1 MOL      0.120702
    124 H58        -1.8120   -2.2800    2.5460 hc        1 MOL      0.120702
    125 H59        -3.0100   -1.9940    3.7640 hc        1 MOL      0.120702
    126 N11        -6.2020   -2.7580    0.0280 n         1 MOL     -0.356911
    127 C39        -7.5500   -2.1770   -0.4090 c3        1 MOL     -0.006767
    128 C40        -7.7000   -0.6600   -0.5090 c         1 MOL      0.316180
    129 O19        -8.2630   -0.2270   -1.4600 o         1 MOL     -0.460273
    130 C41        -8.6730   -2.6470    0.6160 c3        1 MOL      0.081271
    131 C42        -8.9140   -4.1970    0.5070 c3        1 MOL     -0.417971
    132 O20        -8.2660   -2.3930    1.9160 oh        1 MOL     -0.601721
    133 H60        -6.2190   -3.3230    0.8610 hn        1 MOL      0.282679
    134 H61        -7.7790   -2.4910   -1.4260 h1        1 MOL      0.140294
    135 H62        -9.6010   -2.0870    0.5430 h1        1 MOL      0.101857
    136 H63        -8.9710   -2.8780    2.3670 ho        1 MOL      0.406406
    137 H64        -9.0580   -4.4880   -0.5300 hc        1 MOL      0.132693
    138 H65        -8.0090   -4.7100    0.8400 hc        1 MOL      0.132693
    139 H66        -9.7260   -4.6630    1.0570 hc        1 MOL      0.132693
    140 N12        -7.1000    0.1270    0.4490 n         1 MOL     -0.168665
    141 C43        -6.9890    1.5830    0.5670 c3        1 MOL      0.014089
    142 C44        -5.9950    2.2410   -0.3710 c         1 MOL      0.413383
    143 O21        -6.3530    3.2530   -0.9810 o         1 MOL     -0.511377
    144 C45        -6.8490    1.7570    2.0800 c3        1 MOL     -0.076168
    145 C46        -8.0820    1.4050    2.9110 c3        1 MOL      0.067382
    146 C47        -7.7440    1.4930    4.4100 c3        1 MOL      0.104715
    147 C48        -9.0130    1.7610    5.2220 c3        1 MOL     -0.109208
    148 N13        -9.9600    0.5950    5.2330 n4        1 MOL     -0.262105
    149 H67        -6.4210   -0.3220    1.0520 hn        1 MOL      0.294323
    150 H68        -7.9540    2.0160    0.3010 h1        1 MOL      0.079435
    151 H69        -6.5740    2.8030    2.2140 hc        1 MOL      0.031872
    152 H70        -6.1380    1.0070    2.4230 hc        1 MOL      0.031872
    153 H71        -8.4300    0.3890    2.7510 hc        1 MOL     -0.027701
    154 H72        -8.8800    2.1040    2.6450 hc        1 MOL     -0.027701
    155 H73        -6.9420    2.2130    4.5510 hc        1 MOL      0.006432
    156 H74        -7.3120    0.5580    4.7580 hc        1 MOL      0.006432
    157 H75        -9.5590    2.5880    4.7780 hx        1 MOL      0.119345
    158 H76        -8.7660    2.0510    6.2490 hx        1 MOL      0.119345
    159 H77       -10.2830    0.3170    4.3150 hn        1 MOL      0.280044
    160 H78        -9.6590   -0.2080    5.7590 hn        1 MOL      0.280044
    161 H79       -10.7500    0.8540    5.8160 hn        1 MOL      0.280044
    162 N14        -4.8280    1.6350   -0.5670 n         1 MOL     -0.207025
    163 C49        -3.8560    1.9760   -1.5920 c3        1 MOL     -0.045498
    164 C50        -4.3170    1.6000   -3.0330 c         1 MOL      0.430766
    165 O22        -4.1510    2.4830   -3.8860 o         1 MOL     -0.548618
    166 C51        -2.5180    1.1600   -1.2960 c3        1 MOL     -0.012427
    167 C52        -1.6680    1.8640   -0.2350 c3        1 MOL     -0.049179
    168 C53        -0.5390    0.9790    0.3470 c         1 MOL      0.558423
    169 O23        -0.7540   -0.2370    0.5740 o         1 MOL     -0.614335
    170 O24         0.5020    1.5220    0.6950 o         1 MOL     -0.614335
    171 H80        -4.7490    0.7860   -0.0310 hn        1 MOL      0.061772
    172 H81        -3.4230    2.9740   -1.5610 h1        1 MOL      0.081516
    173 H82        -1.9210    1.1540   -2.2020 hc        1 MOL      0.062450
    174 H83        -2.7840    0.1370   -1.0090 hc        1 MOL      0.062450
    175 H84        -2.2890    2.0750    0.6380 hc        1 MOL      0.020587
    176 H85        -1.4580    2.8950   -0.5130 hc        1 MOL      0.020587
    177 N15        -5.0860    0.5150   -3.1630 n         1 MOL      0.010760
    178 C54        -5.7980    0.3340   -4.4070 c3        1 MOL     -0.303597
    179 H86        -6.0370    1.3070   -4.8330 h1        1 MOL      0.103763
    180 H87        -5.1750   -0.2260   -5.1050 h1        1 MOL      0.103763
    181 H88        -6.7210   -0.2160   -4.2210 h1        1 MOL      0.103763
    182 H89        -5.0620   -0.2650   -2.5290 hn        1 MOL      0.080854
    183 Ca1         1.6770   -0.8690    1.4640 Ca        1 MOL      1.655011
    184 O25         0.2270   -0.6370    3.6150 oh        1 MOL     -0.858551
    185 H90        -0.5650   -0.8210    4.1300 ho        1 MOL      0.403105
    186 H91         0.7790   -0.1390    4.2140 ho        1 MOL      0.403105
    187 O26         0.6280   -3.1680    2.2040 oh        1 MOL     -0.858551
    188 H92         0.7380   -4.0240    1.7770 ho        1 MOL      0.403105
    189 H93         0.5180   -3.3740    3.1320 ho        1 MOL      0.403105
@<TRIPOS>BOND
     1    1    2 1   
     2    1    4 1   
     3    1    5 1   
     4    1    6 1   
     5    2    3 2   
     6    2    7 1   
     7    7    8 1   
     8    7   15 1   
     9    8    9 1   
    10    8   11 1   
    11    8   16 1   
    12    9   10 2   
    13    9   19 1   
    14   11   12 1   
    15   11   17 1   
    16   11   18 1   
    17   12   13 1   
    18   12   14 1   
    19   19   20 1   
    20   19   28 1   
    21   20   21 1   
    22   20   23 1   
    23   20   29 1   
    24   21   22 2   
    25   21   41 1   
    26   23   24 1   
    27   23   30 1   
    28   23   31 1   
    29   24   25 1   
    30   24   32 1   
    31   24   33 1   
    32   25   26 1   
    33   25   34 1   
    34   25   35 1   
    35   26   27 1   
    36   26   36 1   
    37   26   37 1   
    38   27   38 1   
    39   27   39 1   
    40   27   40 1   
    41   41   42 1   
    42   41   49 1   
    43   42   43 1   
    44   42   45 1   
    45   42   50 1   
    46   43   44 2   
    47   43   53 1   
    48   45   46 1   
    49   45   51 1   
    50   45   52 1   
    51   46   47 1   
    52   46   48 1   
    53   53   54 1   
    54   53   57 1   
    55   54   55 1   
    56   54   58 1   
    57   54   59 1   
    58   55   56 2   
    59   55   60 1   
    60   60   61 1   
    61   60   68 1   
    62   61   62 1   
    63   61   64 1   
    64   61   69 1   
    65   62   63 2   
    66   62   72 1   
    67   64   65 1   
    68   64   70 1   
    69   64   71 1   
    70   65   66 1   
    71   65   67 1   
    72   72   73 1   
    73   72   76 1   
    74   73   74 1   
    75   73   77 1   
    76   73   78 1   
    77   74   75 2   
    78   74   79 1   
    79   79   80 1   
    80   79   86 1   
    81   80   81 1   
    82   80   83 1   
    83   80   87 1   
    84   81   82 2   
    85   81   93 1   
    86   83   84 1   
    87   83   85 1   
    88   83   88 1   
    89   84   90 1   
    90   84   91 1   
    91   84   92 1   
    92   85   89 1   
    93   93   94 1   
    94   93  101 1   
    95   94   95 1   
    96   94   97 1   
    97   94  102 1   
    98   95   96 2   
    99   95  112 1   
   100   97   98 1   
   101   97   99 1   
   102   97  103 1   
   103   98  100 1   
   104   98  104 1   
   105   98  105 1   
   106   99  106 1   
   107   99  107 1   
   108   99  108 1   
   109  100  109 1   
   110  100  110 1   
   111  100  111 1   
   112  112  113 1   
   113  112  119 1   
   114  113  114 1   
   115  113  116 1   
   116  113  120 1   
   117  114  115 2   
   118  114  126 1   
   119  116  117 1   
   120  116  118 1   
   121  116  121 1   
   122  117  123 1   
   123  117  124 1   
   124  117  125 1   
   125  118  122 1   
   126  126  127 1   
   127  126  133 1   
   128  127  128 1   
   129  127  130 1   
   130  127  134 1   
   131  128  129 2   
   132  128  140 1   
   133  130  131 1   
   134  130  132 1   
   135  130  135 1   
   136  131  137 1   
   137  131  138 1   
   138  131  139 1   
   139  132  136 1   
   140  140  141 1   
   141  140  149 1   
   142  141  142 1   
   143  141  144 1   
   144  141  150 1   
   145  142  143 2   
   146  142  162 1   
   147  144  145 1   
   148  144  151 1   
   149  144  152 1   
   150  145  146 1   
   151  145  153 1   
   152  145  154 1   
   153  146  147 1   
   154  146  155 1   
   155  146  156 1   
   156  147  148 1   
   157  147  157 1   
   158  147  158 1   
   159  148  159 1   
   160  148  160 1   
   161  148  161 1   
   162  162  163 1   
   163  162  171 1   
   164  163  164 1   
   165  163  166 1   
   166  163  172 1   
   167  164  165 2   
   168  164  177 1   
   169  166  167 1   
   170  166  173 1   
   171  166  174 1   
   172  167  168 1   
   173  167  175 1   
   174  167  176 1   
   175  168  169 1   
   176  168  170 1   
   177  177  178 1   
   178  177  182 1   
   179  178  179 1   
   180  178  180 1   
   181  178  181 1   
   182  184  185 1   
   183  184  186 1   
   184  187  188 1   
   185  187  189 1   
@<TRIPOS>SUBSTRUCTURE
     1 MOL         1 TEMP              0 ****  ****    0 ROOT
