@<TRIPOS>MOLECULE
MOL
  189   185     1     0     0
SMALL
resp


@<TRIPOS>ATOM
      1 C1          0.1010    2.3270    5.5130 c3        1 MOL     -0.504070
      2 C2         -0.4610    2.0900    4.0680 c         1 MOL      0.852784
      3 O1          0.2930    2.3850    3.1170 o         1 MOL     -0.631660
      4 H1          0.2200    3.3970    5.6850 hc        1 MOL      0.123905
      5 H2         -0.5940    1.9170    6.2460 hc        1 MOL      0.123905
      6 H3          1.0680    1.8340    5.6140 hc        1 MOL      0.123905
      7 N1         -1.7440    1.7420    3.8840 n         1 MOL     -0.649310
      8 C3         -2.3120    1.5140    2.5780 c3        1 MOL      0.208720
      9 C4         -2.8740    2.8280    2.0660 c         1 MOL      0.277195
     10 O2         -3.8900    3.3830    2.5090 o         1 MOL     -0.538516
     11 C5         -3.4660    0.5890    2.6950 c3        1 MOL     -0.345420
     12 C6         -4.1930    0.3870    1.3820 c         1 MOL      0.833980
     13 O3         -3.5250    0.6610    0.3280 o         1 MOL     -0.673905
     14 O4         -5.3110   -0.1380    1.5050 o         1 MOL     -0.673905
     15 H4         -2.3730    1.3930    4.6000 hn        1 MOL      0.345394
     16 H5         -1.5140    1.2430    1.8930 h1        1 MOL     -0.006162
     17 H6         -4.1240    0.9960    3.4610 hc        1 MOL      0.082706
     18 H7         -3.1820   -0.3930    3.0690 hc        1 MOL      0.082706
     19 N2         -2.2740    3.3080    0.9980 n         1 MOL      0.030683
     20 C7         -2.4900    4.6840    0.5360 c3        1 MOL      0.196264
     21 C8         -3.5630    4.7800   -0.4870 c         1 MOL      0.360342
     22 O5         -4.0120    5.9240   -0.6240 o         1 MOL     -0.574820
     23 C9         -1.2310    5.3880    0.1280 c3        1 MOL     -0.178991
     24 C10        -0.2020    5.4760    1.2630 c3        1 MOL      0.090382
     25 C11        -0.4620    6.5900    2.2860 c3        1 MOL     -0.125005
     26 C12         0.6340    6.6580    3.2820 c3        1 MOL      0.011249
     27 N3          0.3650    7.5610    4.4240 n4        1 MOL     -0.284558
     28 H8         -1.5870    2.6940    0.5900 hn        1 MOL      0.104826
     29 H9         -2.8740    5.3000    1.3520 h1        1 MOL      0.001884
     30 H10        -1.3940    6.3820   -0.2940 hc        1 MOL      0.045477
     31 H11        -0.7550    4.6970   -0.5740 hc        1 MOL      0.045477
     32 H12         0.8330    5.5890    0.9400 hc        1 MOL      0.022642
     33 H13        -0.2430    4.5630    1.8540 hc        1 MOL      0.022642
     34 H14        -1.4270    6.3770    2.7550 hc        1 MOL      0.056371
     35 H15        -0.5190    7.5590    1.7780 hc        1 MOL      0.056371
     36 H16         1.4880    7.1260    2.7900 hx        1 MOL      0.083759
     37 H17         0.7360    5.6230    3.5960 hx        1 MOL      0.083759
     38 H18        -0.4660    7.3350    4.9410 hn        1 MOL      0.303497
     39 H19         1.0620    7.5630    5.1510 hn        1 MOL      0.303497
     40 H20         0.2920    8.5240    4.1360 hn        1 MOL      0.303497
     41 N4         -3.8780    3.7340   -1.2460 n         1 MOL     -0.191510
     42 C13        -4.9260    3.7400   -2.3050 c3        1 MOL      0.050970
     43 C14        -6.1390    2.8060   -1.9920 c         1 MOL      0.342533
     44 O6         -7.0510    2.7780   -2.8090 o         1 MOL     -0.512966
     45 C15        -4.3990    3.3390   -3.7350 c3        1 MOL     -0.216510
     46 C16        -3.3610    2.2000   -3.6960 c         1 MOL      0.753266
     47 O7         -2.6090    2.0330   -4.6560 o         1 MOL     -0.688090
     48 O8         -3.3310    1.4280   -2.7030 o         1 MOL     -0.688090
     49 H21        -3.3940    2.8470   -1.1650 hn        1 MOL      0.105444
     50 H22        -5.3630    4.7300   -2.4820 h1        1 MOL      0.100209
     51 H23        -3.8820    4.1850   -4.1930 hc        1 MOL      0.061927
     52 H24        -5.2010    3.0740   -4.4180 hc        1 MOL      0.061927
     53 N5         -6.2510    2.1880   -0.8180 n         1 MOL     -0.166837
     54 C17        -7.4380    1.5210   -0.3290 c3        1 MOL     -0.170767
     55 C18        -7.7550    0.1480   -0.9980 c         1 MOL      0.480480
     56 O9         -8.8980   -0.3080   -0.8550 o         1 MOL     -0.568094
     57 H25        -5.4710    2.2340   -0.1810 hn        1 MOL      0.164001
     58 H26        -8.2820    2.2030   -0.4570 h1        1 MOL      0.103679
     59 H27        -7.3260    1.3760    0.7480 h1        1 MOL      0.103679
     60 N6         -6.8060   -0.4940   -1.6560 n         1 MOL     -0.238342
     61 C19        -6.9660   -1.8640   -2.1890 c3        1 MOL     -0.024415
     62 C20        -7.0030   -2.9280   -1.0070 c         1 MOL      0.425301
     63 O10        -7.5100   -4.0380   -1.1860 o         1 MOL     -0.557174
     64 C21        -5.8410   -2.0950   -3.1910 c3        1 MOL     -0.288425
     65 C22        -4.3760   -1.9480   -2.7930 c         1 MOL      0.708790
     66 O11        -3.4830   -1.6780   -3.6010 o         1 MOL     -0.684475
     67 O12        -4.0920   -1.9780   -1.5490 o         1 MOL     -0.684475
     68 H28        -5.9050   -0.0610   -1.7720 hn        1 MOL      0.243708
     69 H29        -7.9530   -1.8560   -2.6690 h1        1 MOL      0.121532
     70 H30        -5.9580   -1.4230   -4.0480 hc        1 MOL      0.086801
     71 H31        -5.9550   -3.1190   -3.5390 hc        1 MOL      0.086801
     72 N7         -6.6670   -2.5930    0.2260 n         1 MOL     -0.078668
     73 C23        -6.7210   -3.5030    1.3700 c3        1 MOL     -0.308574
     74 C24        -5.2900   -4.1490    1.6330 c         1 MOL      0.554233
     75 O13        -5.2010   -5.1230    2.4080 o         1 MOL     -0.571374
     76 H32        -6.3820   -1.6430    0.4310 hn        1 MOL      0.213598
     77 H33        -7.4770   -4.2660    1.1940 h1        1 MOL      0.142792
     78 H34        -6.9170   -2.9520    2.2870 h1        1 MOL      0.142792
     79 N8         -4.2010   -3.7210    0.9540 n         1 MOL     -0.258852
     80 C25        -2.7900   -4.2440    0.9690 c3        1 MOL     -0.179362
     81 C26        -1.7770   -3.1420    1.0120 c         1 MOL      0.867901
     82 O14        -1.9980   -2.0520    0.5570 o         1 MOL     -0.712251
     83 C27        -2.5210   -5.1180   -0.3010 c3        1 MOL      0.472842
     84 C28        -3.3220   -6.4460   -0.4140 c3        1 MOL     -0.508879
     85 O15        -2.7660   -4.3140   -1.4060 oh        1 MOL     -0.646770
     86 H35        -4.4020   -2.9430    0.3400 hn        1 MOL      0.115063
     87 H36        -2.7030   -4.8740    1.8580 h1        1 MOL      0.079936
     88 H37        -1.4890   -5.4800   -0.3240 h1        1 MOL      0.005621
     89 H38        -3.6360   -3.9130   -1.3320 ho        1 MOL      0.434226
     90 H39        -3.2020   -7.0360    0.5030 hc        1 MOL      0.131604
     91 H40        -4.3420   -6.2780   -0.7540 hc        1 MOL      0.131604
     92 H41        -2.9990   -6.9500   -1.3260 hc        1 MOL      0.131604
     93 N9         -0.5750   -3.5200    1.5470 n         1 MOL     -0.687775
     94 C29         0.5910   -2.7310    1.7670 c3        1 MOL     -0.034126
     95 C30         1.7920   -3.2590    0.9250 c         1 MOL      0.632037
     96 O16         2.1170   -4.4290    1.1770 o         1 MOL     -0.579749
     97 C31         0.8430   -2.7300    3.2830 c3        1 MOL      0.263533
     98 C32        -0.2780   -2.1740    4.1710 c3        1 MOL      0.174155
     99 C33         2.0830   -1.8140    3.3970 c3        1 MOL     -0.489841
    100 C34        -0.2660   -2.5870    5.7110 c3        1 MOL     -0.312983
    101 H42        -0.4990   -4.5240    1.6510 hn        1 MOL      0.277923
    102 H43         0.2500   -1.7350    1.4730 h1        1 MOL      0.155887
    103 H44         1.1030   -3.7190    3.6580 hc        1 MOL      0.009161
    104 H45        -1.1970   -2.5140    3.7110 hc        1 MOL     -0.034368
    105 H46        -0.2850   -1.0800    4.1170 hc        1 MOL     -0.034368
    106 H47         2.2120   -1.7470    4.4790 hc        1 MOL      0.081094
    107 H48         2.9850   -2.3510    3.0930 hc        1 MOL      0.081094
    108 H49         1.9830   -0.7940    3.0060 hc        1 MOL      0.081094
    109 H50        -0.2600   -3.6790    5.6950 hc        1 MOL      0.069259
    110 H51         0.6790   -2.4260    6.2280 hc        1 MOL      0.069259
    111 H52        -1.0760   -2.0510    6.1950 hc        1 MOL      0.069259
    112 N10         2.4710   -2.4920    0.0730 n         1 MOL     -0.443232
    113 C35         3.6720   -2.9510   -0.5750 c3        1 MOL     -0.045775
    114 C36         5.0090   -2.8680    0.2340 c         1 MOL      0.478999
    115 O17         5.0840   -2.3310    1.3460 o         1 MOL     -0.449357
    116 C37         3.7190   -2.1820   -1.9290 c3        1 MOL      0.117172
    117 C38         2.5140   -2.3210   -2.8820 c3        1 MOL     -0.433047
    118 O18         3.9660   -0.7890   -1.8190 oh        1 MOL     -0.491945
    119 H53         2.1530   -1.5350    0.0860 hn        1 MOL      0.455302
    120 H54         3.4800   -3.9580   -0.9400 h1        1 MOL      0.114171
    121 H55         4.5640   -2.5920   -2.4650 h1        1 MOL      0.054274
    122 H56         3.2740   -0.3650   -2.3260 ho        1 MOL      0.400889
    123 H57         1.8280   -1.4870   -2.7210 hc        1 MOL      0.134510
    124 H58         2.7860   -2.1180   -3.9250 hc        1 MOL      0.134510
    125 H59         2.0340   -3.3020   -2.8440 hc        1 MOL      0.134510
    126 N11         6.0390   -3.2980   -0.3920 n         1 MOL     -0.342213
    127 C39         7.3830   -3.0170    0.1740 c3        1 MOL      0.084627
    128 C40         7.8040   -1.5390    0.1250 c         1 MOL      0.228201
    129 O19         8.6620   -1.0600    0.9560 o         1 MOL     -0.473121
    130 C41         8.4870   -3.8850   -0.6210 c3        1 MOL      0.472806
    131 C42         9.8430   -4.0910    0.1030 c3        1 MOL     -0.454952
    132 O20         7.9490   -5.1960   -0.9550 oh        1 MOL     -0.629080
    133 H60         5.9370   -3.7390   -1.2830 hn        1 MOL      0.215282
    134 H61         7.3840   -3.2750    1.2290 h1        1 MOL      0.103394
    135 H62         8.6320   -3.3050   -1.5280 h1        1 MOL     -0.075425
    136 H63         8.4370   -5.5410   -1.7010 ho        1 MOL      0.388857
    137 H64        10.3610   -3.1540    0.3210 hc        1 MOL      0.121682
    138 H65         9.6140   -4.6750    0.9930 hc        1 MOL      0.121682
    139 H66        10.5440   -4.5890   -0.5780 hc        1 MOL      0.121682
    140 N12         7.2000   -0.7960   -0.8370 n         1 MOL     -0.125790
    141 C43         7.4330    0.7050   -1.0760 c3        1 MOL     -0.102014
    142 C44         6.5210    1.6160   -0.2110 c         1 MOL      0.337689
    143 O21         6.9350    2.5590    0.4840 o         1 MOL     -0.493609
    144 C45         7.3170    0.8890   -2.5980 c3        1 MOL     -0.059070
    145 C46         7.9680    2.2320   -3.0160 c3        1 MOL     -0.002147
    146 C47         8.0350    2.5160   -4.5900 c3        1 MOL      0.031366
    147 C48         8.5300    3.9630   -4.6500 c3        1 MOL      0.109858
    148 N13         8.5390    4.5290   -6.0490 n4        1 MOL     -0.550915
    149 H67         6.5780   -1.2530   -1.4820 hn        1 MOL      0.166807
    150 H68         8.4110    0.9510   -0.6770 h1        1 MOL      0.135355
    151 H69         6.2810    0.7750   -2.9030 hc        1 MOL      0.020931
    152 H70         7.8340    0.0980   -3.1400 hc        1 MOL      0.020931
    153 H71         8.9760    2.2550   -2.6040 hc        1 MOL      0.027954
    154 H72         7.4800    3.0420   -2.4710 hc        1 MOL      0.027954
    155 H73         7.0300    2.4440   -5.0080 hc        1 MOL      0.025814
    156 H74         8.7090    1.8410   -5.1090 hc        1 MOL      0.025814
    157 H75         9.5470    4.0220   -4.2800 hx        1 MOL      0.067180
    158 H76         7.8760    4.5070   -3.9730 hx        1 MOL      0.067180
    159 H77         8.9120    5.4650   -6.0320 hn        1 MOL      0.368344
    160 H78         9.2110    4.0400   -6.6270 hn        1 MOL      0.368344
    161 H79         7.5790    4.5960   -6.3430 hn        1 MOL      0.368344
    162 N14         5.2570    1.2530   -0.0590 n         1 MOL     -0.042080
    163 C49         4.3520    1.8000    0.9880 c3        1 MOL     -0.229795
    164 C50         4.9170    1.5880    2.4290 c         1 MOL      0.483009
    165 O22         4.9380    2.5540    3.2160 o         1 MOL     -0.559390
    166 C51         2.9530    1.0980    0.9120 c3        1 MOL      0.037632
    167 C52         2.0390    1.6880   -0.1630 c3        1 MOL     -0.050571
    168 C53         0.6850    0.9560   -0.3070 c         1 MOL      0.673251
    169 O23         0.6670   -0.3020   -0.3300 o         1 MOL     -0.701871
    170 O24        -0.3370    1.6030   -0.7010 o         1 MOL     -0.701871
    171 H80         4.9580    0.4920   -0.6560 hn        1 MOL      0.086727
    172 H81         4.2480    2.8440    0.6950 h1        1 MOL      0.123545
    173 H82         2.4630    1.2520    1.8720 hc        1 MOL      0.019059
    174 H83         3.0860    0.0460    0.6710 hc        1 MOL      0.019059
    175 H84         2.5520    1.5730   -1.1260 hc        1 MOL     -0.014060
    176 H85         1.9150    2.7610   -0.0160 hc        1 MOL     -0.014060
    177 N15         5.5240    0.4260    2.7580 n         1 MOL     -0.062650
    178 C54         6.0920    0.1160    4.0370 c3        1 MOL     -0.329558
    179 H86         7.1790    0.1200    3.9620 h1        1 MOL      0.119119
    180 H87         5.7760    0.8630    4.7660 h1        1 MOL      0.119119
    181 H88         5.7530   -0.8690    4.3560 h1        1 MOL      0.119119
    182 H89         5.5560   -0.2980    2.0530 hn        1 MOL      0.202314
    183 Ca1        -2.0300   -0.3410   -1.4450 Ca        1 MOL      1.735462
    184 O25        -0.9280    0.1400   -3.7590 oh        1 MOL     -0.905434
    185 H90        -1.5800    0.7650   -4.0820 ho        1 MOL      0.409159
    186 H91        -0.6160   -0.3100   -4.5590 ho        1 MOL      0.409159
    187 O26        -0.7810   -2.6050   -2.1340 oh        1 MOL     -0.905434
    188 H92        -0.5480   -2.7480   -3.0500 ho        1 MOL      0.409159
    189 H93        -1.3880   -3.3130   -1.9210 ho        1 MOL      0.409159
@<TRIPOS>BOND
     1    1    2 1   
     2    1    4 1   
     3    1    5 1   
     4    1    6 1   
     5    2    3 2   
     6    2    7 1   
     7    7    8 1   
     8    7   15 1   
     9    8    9 1   
    10    8   11 1   
    11    8   16 1   
    12    9   10 2   
    13    9   19 1   
    14   11   12 1   
    15   11   17 1   
    16   11   18 1   
    17   12   13 1   
    18   12   14 1   
    19   19   20 1   
    20   19   28 1   
    21   20   21 1   
    22   20   23 1   
    23   20   29 1   
    24   21   22 2   
    25   21   41 1   
    26   23   24 1   
    27   23   30 1   
    28   23   31 1   
    29   24   25 1   
    30   24   32 1   
    31   24   33 1   
    32   25   26 1   
    33   25   34 1   
    34   25   35 1   
    35   26   27 1   
    36   26   36 1   
    37   26   37 1   
    38   27   38 1   
    39   27   39 1   
    40   27   40 1   
    41   41   42 1   
    42   41   49 1   
    43   42   43 1   
    44   42   45 1   
    45   42   50 1   
    46   43   44 2   
    47   43   53 1   
    48   45   46 1   
    49   45   51 1   
    50   45   52 1   
    51   46   47 1   
    52   46   48 1   
    53   53   54 1   
    54   53   57 1   
    55   54   55 1   
    56   54   58 1   
    57   54   59 1   
    58   55   56 2   
    59   55   60 1   
    60   60   61 1   
    61   60   68 1   
    62   61   62 1   
    63   61   64 1   
    64   61   69 1   
    65   62   63 2   
    66   62   72 1   
    67   64   65 1   
    68   64   70 1   
    69   64   71 1   
    70   65   66 1   
    71   65   67 1   
    72   72   73 1   
    73   72   76 1   
    74   73   74 1   
    75   73   77 1   
    76   73   78 1   
    77   74   75 2   
    78   74   79 1   
    79   79   80 1   
    80   79   86 1   
    81   80   81 1   
    82   80   83 1   
    83   80   87 1   
    84   81   82 2   
    85   81   93 1   
    86   83   84 1   
    87   83   85 1   
    88   83   88 1   
    89   84   90 1   
    90   84   91 1   
    91   84   92 1   
    92   85   89 1   
    93   93   94 1   
    94   93  101 1   
    95   94   95 1   
    96   94   97 1   
    97   94  102 1   
    98   95   96 2   
    99   95  112 1   
   100   97   98 1   
   101   97   99 1   
   102   97  103 1   
   103   98  100 1   
   104   98  104 1   
   105   98  105 1   
   106   99  106 1   
   107   99  107 1   
   108   99  108 1   
   109  100  109 1   
   110  100  110 1   
   111  100  111 1   
   112  112  113 1   
   113  112  119 1   
   114  113  114 1   
   115  113  116 1   
   116  113  120 1   
   117  114  115 2   
   118  114  126 1   
   119  116  117 1   
   120  116  118 1   
   121  116  121 1   
   122  117  123 1   
   123  117  124 1   
   124  117  125 1   
   125  118  122 1   
   126  126  127 1   
   127  126  133 1   
   128  127  128 1   
   129  127  130 1   
   130  127  134 1   
   131  128  129 2   
   132  128  140 1   
   133  130  131 1   
   134  130  132 1   
   135  130  135 1   
   136  131  137 1   
   137  131  138 1   
   138  131  139 1   
   139  132  136 1   
   140  140  141 1   
   141  140  149 1   
   142  141  142 1   
   143  141  144 1   
   144  141  150 1   
   145  142  143 2   
   146  142  162 1   
   147  144  145 1   
   148  144  151 1   
   149  144  152 1   
   150  145  146 1   
   151  145  153 1   
   152  145  154 1   
   153  146  147 1   
   154  146  155 1   
   155  146  156 1   
   156  147  148 1   
   157  147  157 1   
   158  147  158 1   
   159  148  159 1   
   160  148  160 1   
   161  148  161 1   
   162  162  163 1   
   163  162  171 1   
   164  163  164 1   
   165  163  166 1   
   166  163  172 1   
   167  164  165 2   
   168  164  177 1   
   169  166  167 1   
   170  166  173 1   
   171  166  174 1   
   172  167  168 1   
   173  167  175 1   
   174  167  176 1   
   175  168  169 1   
   176  168  170 1   
   177  177  178 1   
   178  177  182 1   
   179  178  179 1   
   180  178  180 1   
   181  178  181 1   
   182  184  185 1   
   183  184  186 1   
   184  187  188 1   
   185  187  189 1   
@<TRIPOS>SUBSTRUCTURE
     1 MOL         1 TEMP              0 ****  ****    0 ROOT
