@<TRIPOS>MOLECULE
MOL
  182   178     1     0     0
SMALL
resp


@<TRIPOS>ATOM
      1 C1          1.7760    2.4890    6.0370 c3        1 MOL     -0.280541
      2 C2          1.2290    2.5290    4.5840 c         1 MOL      0.695016
      3 O1          1.9450    2.6360    3.5910 o         1 MOL     -0.570201
      4 H1          2.4620    1.6490    6.1430 hc        1 MOL      0.072840
      5 H2          2.3030    3.4180    6.2530 hc        1 MOL      0.072840
      6 H3          0.9470    2.3700    6.7340 hc        1 MOL      0.072840
      7 N1         -0.1070    2.2700    4.4780 n         1 MOL     -0.626451
      8 C3         -0.7840    2.2580    3.2030 c3        1 MOL      0.196791
      9 C4         -1.1680    3.6240    2.5520 c         1 MOL      0.540898
     10 O2         -2.0290    4.3270    3.0840 o         1 MOL     -0.545179
     11 C5         -2.0730    1.3810    3.3080 c3        1 MOL     -0.312462
     12 C6         -2.7080    1.0070    1.9240 c         1 MOL      0.726113
     13 O3         -3.5390    0.1100    1.9860 o         1 MOL     -0.678615
     14 O4         -2.3170    1.4390    0.8420 o         1 MOL     -0.678615
     15 H4         -0.5120    1.9580    5.3510 hn        1 MOL      0.345893
     16 H5         -0.1470    1.7980    2.4630 h1        1 MOL     -0.172898
     17 H6         -2.8110    1.8160    3.9800 hc        1 MOL      0.099708
     18 H7         -1.7510    0.4230    3.7120 hc        1 MOL      0.099708
     19 N2         -0.4880    3.9710    1.4390 n         1 MOL     -0.274154
     20 C7         -0.5760    5.3310    0.7590 c3        1 MOL     -0.077411
     21 C8         -1.9030    5.7400    0.0940 c         1 MOL      0.485604
     22 O5         -2.3070    6.9210    0.0840 o         1 MOL     -0.603978
     23 C9          0.5290    5.3850   -0.2980 c3        1 MOL     -0.154364
     24 C10         0.6630    6.7830   -0.8720 c3        1 MOL      0.323584
     25 C11         2.0430    6.8770   -1.4850 c3        1 MOL     -0.264756
     26 C12         2.1790    8.1150   -2.3690 c3        1 MOL      0.137137
     27 N3          1.9750    9.3550   -1.5660 n4        1 MOL     -0.531749
     28 H8          0.2320    3.3670    1.0590 hn        1 MOL      0.245344
     29 H9         -0.4850    6.1190    1.4990 h1        1 MOL      0.097848
     30 H10         0.4510    4.6770   -1.1160 hc        1 MOL      0.069317
     31 H11         1.4590    5.2140    0.2570 hc        1 MOL      0.069317
     32 H12         0.6750    7.4990   -0.0460 hc        1 MOL     -0.063165
     33 H13        -0.1030    7.0310   -1.6130 hc        1 MOL     -0.063165
     34 H14         2.1850    5.9760   -2.0930 hc        1 MOL      0.088759
     35 H15         2.7880    7.0810   -0.7070 hc        1 MOL      0.088759
     36 H16         1.4850    8.0800   -3.2130 hx        1 MOL      0.075274
     37 H17         3.1280    8.0900   -2.9250 hx        1 MOL      0.075274
     38 H18         2.8170    9.5700   -1.0490 hn        1 MOL      0.370423
     39 H19         1.6560   10.0880   -2.1710 hn        1 MOL      0.370423
     40 H20         1.2640    9.2710   -0.8510 hn        1 MOL      0.370423
     41 N4         -2.6590    4.7690   -0.4150 n         1 MOL     -0.174070
     42 C13        -3.8890    4.8890   -1.1710 c3        1 MOL      0.120143
     43 C14        -5.0350    4.0390   -0.6140 c         1 MOL      0.440262
     44 O6         -6.1650    4.1320   -1.1150 o         1 MOL     -0.527342
     45 C15        -3.5270    4.5790   -2.5970 c3        1 MOL     -0.269865
     46 C16        -3.3060    3.1280   -2.9410 c         1 MOL      0.874584
     47 O7         -3.0060    2.3130   -2.0700 o         1 MOL     -0.748373
     48 O8         -3.3760    2.6860   -4.1050 o         1 MOL     -0.748373
     49 H21        -2.3190    3.8470   -0.1910 hn        1 MOL      0.042206
     50 H22        -4.2510    5.9020   -1.0210 h1        1 MOL      0.093907
     51 H23        -2.6300    5.1530   -2.8560 hc        1 MOL      0.051518
     52 H24        -4.3210    4.9690   -3.2440 hc        1 MOL      0.051518
     53 N5         -4.7600    3.2370    0.4250 n         1 MOL     -0.232319
     54 C17        -5.7140    2.6470    1.3660 c3        1 MOL     -0.090448
     55 C18        -6.4860    1.4170    0.7850 c         1 MOL      0.433271
     56 O9         -7.5590    0.9520    1.2590 o         1 MOL     -0.539937
     57 H25        -3.8010    3.0400    0.6400 hn        1 MOL      0.148827
     58 H26        -6.3480    3.3880    1.8660 h1        1 MOL      0.102253
     59 H27        -5.0820    2.2530    2.1610 h1        1 MOL      0.102253
     60 N6         -5.9480    0.9370   -0.3410 n         1 MOL     -0.194911
     61 C19        -6.4670   -0.2050   -1.0710 c3        1 MOL      0.024218
     62 C20        -6.6980   -1.4390   -0.1160 c         1 MOL      0.501706
     63 O10        -7.5840   -2.2400   -0.2890 o         1 MOL     -0.532113
     64 C21        -5.6420   -0.4560   -2.3210 c3        1 MOL     -0.320125
     65 C22        -4.4150   -1.2590   -2.1150 c         1 MOL      0.664773
     66 N7         -4.1940   -2.2090   -3.0090 n         1 MOL     -0.819203
     67 O11        -3.5770   -1.1070   -1.1640 o         1 MOL     -0.570822
     68 H28        -4.9870    1.2380   -0.4510 hn        1 MOL      0.147783
     69 H29        -7.4980    0.0160   -1.3440 h1        1 MOL      0.083512
     70 H30        -5.3950    0.3910   -2.9530 hc        1 MOL      0.124096
     71 H31        -6.3370   -1.0400   -2.9190 hc        1 MOL      0.124096
     72 H32        -5.0080   -2.4840   -3.5440 hn        1 MOL      0.388500
     73 H33        -3.2920   -2.6580   -3.0690 hn        1 MOL      0.388500
     74 N8         -5.8000   -1.5220    0.9230 n         1 MOL     -0.152314
     75 C23        -5.7840   -2.7240    1.8870 c3        1 MOL     -0.275714
     76 C24        -4.5790   -3.6780    1.7200 c         1 MOL      0.619589
     77 O12        -4.4660   -4.7100    2.3590 o         1 MOL     -0.594179
     78 H34        -4.9940   -0.9120    0.9170 hn        1 MOL      0.174039
     79 H35        -6.7020   -3.3130    1.9570 h1        1 MOL      0.136559
     80 H36        -5.7080   -2.2510    2.8590 h1        1 MOL      0.136559
     81 N9         -3.5810   -3.1900    1.0030 n         1 MOL     -0.185256
     82 C25        -2.2510   -3.8010    0.6700 c3        1 MOL      0.119613
     83 C26        -1.0250   -2.7950    0.8520 c         1 MOL      0.180392
     84 O13        -1.1050   -1.6260    0.5580 o         1 MOL     -0.162291
     85 C27        -2.2620   -4.4410   -0.6850 c3        1 MOL      0.031105
     86 C28        -3.3650   -5.4800   -0.9460 ca        1 MOL     -0.162517
     87 C29        -4.6730   -5.1530   -1.4300 ca        1 MOL     -0.034036
     88 C30        -3.0830   -6.7810   -0.5480 ca        1 MOL     -0.034036
     89 C31        -5.7150   -6.1300   -1.3760 ca        1 MOL     -0.388174
     90 C32        -4.1160   -7.7350   -0.5210 ca        1 MOL     -0.388174
     91 C33        -5.4580   -7.3930   -0.7640 ca        1 MOL      0.499384
     92 O14        -6.4460   -8.2760   -0.6080 oh        1 MOL     -0.490987
     93 H37        -3.6440   -2.2140    0.7530 hn        1 MOL      0.043233
     94 H38        -1.9820   -4.5800    1.3830 h1        1 MOL      0.042219
     95 H39        -1.3270   -4.9870   -0.7940 hc        1 MOL     -0.005958
     96 H40        -2.2740   -3.6540   -1.4370 hc        1 MOL     -0.005958
     97 H41        -4.9210   -4.1570   -1.7710 ha        1 MOL      0.112788
     98 H42        -2.0980   -7.0570   -0.2180 ha        1 MOL      0.112788
     99 H43        -6.7310   -5.8810   -1.6340 ha        1 MOL      0.167771
    100 H44        -3.9240   -8.6960   -0.0760 ha        1 MOL      0.167771
    101 H45        -6.1590   -9.1620   -0.3740 ho        1 MOL      0.354284
    102 N10         0.1360   -3.2610    1.3330 n         1 MOL     -0.282487
    103 C34         1.4580   -2.6640    1.1590 c3        1 MOL     -0.066968
    104 C35         2.4230   -3.6070    0.4780 c         1 MOL      0.497371
    105 O15         2.4080   -4.8210    0.6990 o         1 MOL     -0.529431
    106 C36         1.9620   -1.9580    2.4690 c3        1 MOL      0.002499
    107 C37         2.2580   -3.0380    3.5920 c3        1 MOL      0.024329
    108 C38         1.0090   -0.8680    2.8980 c3        1 MOL     -0.179890
    109 C39         2.8280   -2.4330    4.8620 c3        1 MOL     -0.223885
    110 H46         0.1310   -4.1690    1.7860 hn        1 MOL      0.264880
    111 H47         1.2850   -1.8440    0.4630 h1        1 MOL      0.083866
    112 H48         2.9190   -1.4990    2.2150 hc        1 MOL      0.008606
    113 H49         2.9490   -3.7750    3.1760 hc        1 MOL      0.019242
    114 H50         1.3710   -3.6600    3.7700 hc        1 MOL      0.019242
    115 H51         1.6080   -0.1060    3.4070 hc        1 MOL      0.078437
    116 H52         0.6510   -0.3970    1.9870 hc        1 MOL      0.078437
    117 H53         0.2170   -1.3030    3.4980 hc        1 MOL      0.078437
    118 H54         3.3300   -3.1380    5.5160 hc        1 MOL      0.060211
    119 H55         3.6560   -1.7470    4.7060 hc        1 MOL      0.060211
    120 H56         2.0890   -1.8580    5.4290 hc        1 MOL      0.060211
    121 N11         3.2110   -3.0840   -0.4940 n         1 MOL     -0.311653
    122 C40         4.3280   -3.8270   -1.1020 c3        1 MOL      0.077269
    123 C41         5.5870   -3.4700   -0.3910 c         1 MOL      0.432312
    124 O16         5.5650   -2.6810    0.5450 o         1 MOL     -0.368610
    125 C42         4.3730   -3.4720   -2.6120 c3        1 MOL     -0.140160
    126 O17         4.6860   -2.1230   -2.7800 oh        1 MOL     -0.443436
    127 H57         3.2020   -2.0950   -0.7180 hn        1 MOL      0.175388
    128 H58         4.0990   -4.8900   -1.0710 h1        1 MOL      0.076414
    129 H59         3.3760   -3.6340   -3.0190 h1        1 MOL      0.097544
    130 H60         5.1450   -4.1210   -3.0220 h1        1 MOL      0.097544
    131 H61         3.7970   -1.8150   -2.9410 ho        1 MOL      0.395201
    132 N12         6.8260   -3.9340   -0.8380 n         1 MOL     -0.432804
    133 C43         8.0200   -3.4050   -0.2340 c3        1 MOL      0.047080
    134 C44         8.3050   -1.9260   -0.7180 c         1 MOL      0.583785
    135 O18         8.9370   -1.1450   -0.0070 o         1 MOL     -0.532599
    136 C45         9.3080   -4.3320   -0.5910 c3        1 MOL     -0.274457
    137 H62         6.8640   -4.6470   -1.5630 hn        1 MOL      0.287051
    138 H63         7.9320   -3.3230    0.8420 h1        1 MOL      0.101983
    139 H64         9.5020   -4.3100   -1.6610 hc        1 MOL      0.088534
    140 H65        10.2390   -3.9810   -0.1550 hc        1 MOL      0.088534
    141 H66         9.0750   -5.3600   -0.3040 hc        1 MOL      0.088534
    142 N13         7.9060   -1.5960   -1.9720 n         1 MOL     -0.529474
    143 C46         7.9840   -0.2830   -2.5330 c3        1 MOL      0.203789
    144 C47         7.2400    0.7860   -1.7710 c         1 MOL      0.453937
    145 O19         7.6080    1.8950   -2.0020 o         1 MOL     -0.543477
    146 C48         7.6700   -0.4870   -4.0740 c3        1 MOL     -0.141788
    147 H67         7.5160   -2.2600   -2.6190 hn        1 MOL      0.333453
    148 H68         9.0230    0.0300   -2.5480 h1        1 MOL      0.058282
    149 H69         8.1190    0.3370   -4.6390 hc        1 MOL      0.033188
    150 H70         8.0700   -1.4720   -4.3120 hc        1 MOL      0.033188
    151 H71         6.6010   -0.6270   -4.2070 hc        1 MOL      0.033188
    152 N14         6.2580    0.4270   -0.9220 n         1 MOL     -0.114590
    153 C49         5.4110    1.3300   -0.0290 c3        1 MOL     -0.017157
    154 C50         5.9000    1.2710    1.4200 c         1 MOL      0.496277
    155 O20         5.8890    2.3170    2.0690 o         1 MOL     -0.551583
    156 C51         3.9390    0.8030   -0.2960 c3        1 MOL     -0.148238
    157 C52         2.8690    1.5560    0.5120 c3        1 MOL     -0.067920
    158 C53         1.5390    1.1580   -0.1320 c         1 MOL      0.618042
    159 O21         0.4540    1.7490    0.0510 o         1 MOL     -0.670147
    160 O22         1.4610    0.1110   -0.7960 o         1 MOL     -0.670147
    161 H72         5.9530   -0.5320   -0.9510 hn        1 MOL     -0.123291
    162 H73         5.4290    2.3460   -0.4050 h1        1 MOL      0.075436
    163 H74         3.8900   -0.2250    0.0570 hc        1 MOL      0.080723
    164 H75         3.7820    0.7500   -1.3760 hc        1 MOL      0.080723
    165 H76         3.0260    2.6310    0.4690 hc        1 MOL      0.065450
    166 H77         2.8750    1.2240    1.5500 hc        1 MOL      0.065450
    167 N15         6.5160    0.1830    1.8620 n         1 MOL     -0.153163
    168 C54         7.3710    0.0500    3.0940 c3        1 MOL     -0.193629
    169 H78         7.7710   -0.9630    3.1520 h1        1 MOL      0.099475
    170 H79         8.1950    0.7620    3.0440 h1        1 MOL      0.099475
    171 H80         6.7680    0.2520    3.9800 h1        1 MOL      0.099475
    172 H81         6.3680   -0.6470    1.3030 hn        1 MOL      0.148827
    173 Ca1        -1.3730    0.5140   -1.2580 Ca        1 MOL      1.762108
    174 O23         0.5310    2.0000   -3.0360 oh        1 MOL     -0.878134
    175 H82         1.3560    1.7010   -3.4140 ho        1 MOL      0.413465
    176 H83         0.2120    2.6650   -3.6390 ho        1 MOL      0.413465
    177 O24        -0.8250   -1.7400   -2.4170 oh        1 MOL     -0.878134
    178 H84        -1.0890   -1.8600   -3.3290 ho        1 MOL      0.413465
    179 H85        -0.3370   -2.5300   -2.1980 ho        1 MOL      0.413465
    180 O25        -1.9340    0.3410   -3.8700 oh        1 MOL     -0.878134
    181 H86        -2.5210    1.0810   -4.0190 ho        1 MOL      0.413465
    182 H87        -1.3520    0.3320   -4.6400 ho        1 MOL      0.413465
@<TRIPOS>BOND
     1    1    2 1   
     2    1    4 1   
     3    1    5 1   
     4    1    6 1   
     5    2    3 2   
     6    2    7 1   
     7    7    8 1   
     8    7   15 1   
     9    8    9 1   
    10    8   11 1   
    11    8   16 1   
    12    9   10 2   
    13    9   19 1   
    14   11   12 1   
    15   11   17 1   
    16   11   18 1   
    17   12   13 1   
    18   12   14 1   
    19   19   20 1   
    20   19   28 1   
    21   20   21 1   
    22   20   23 1   
    23   20   29 1   
    24   21   22 2   
    25   21   41 1   
    26   23   24 1   
    27   23   30 1   
    28   23   31 1   
    29   24   25 1   
    30   24   32 1   
    31   24   33 1   
    32   25   26 1   
    33   25   34 1   
    34   25   35 1   
    35   26   27 1   
    36   26   36 1   
    37   26   37 1   
    38   27   38 1   
    39   27   39 1   
    40   27   40 1   
    41   41   42 1   
    42   41   49 1   
    43   42   43 1   
    44   42   45 1   
    45   42   50 1   
    46   43   44 2   
    47   43   53 1   
    48   45   46 1   
    49   45   51 1   
    50   45   52 1   
    51   46   47 1   
    52   46   48 1   
    53   53   54 1   
    54   53   57 1   
    55   54   55 1   
    56   54   58 1   
    57   54   59 1   
    58   55   56 2   
    59   55   60 1   
    60   60   61 1   
    61   60   68 1   
    62   61   62 1   
    63   61   64 1   
    64   61   69 1   
    65   62   63 2   
    66   62   74 1   
    67   64   65 1   
    68   64   70 1   
    69   64   71 1   
    70   65   66 1   
    71   65   67 2   
    72   66   72 1   
    73   66   73 1   
    74   74   75 1   
    75   74   78 1   
    76   75   76 1   
    77   75   79 1   
    78   75   80 1   
    79   76   77 2   
    80   76   81 1   
    81   81   82 1   
    82   81   93 1   
    83   82   83 1   
    84   82   85 1   
    85   82   94 1   
    86   83   84 2   
    87   83  102 1   
    88   85   86 1   
    89   85   95 1   
    90   85   96 1   
    91   86   87 ar  
    92   86   88 ar  
    93   87   89 ar  
    94   87   97 1   
    95   88   90 ar  
    96   88   98 1   
    97   89   91 ar  
    98   89   99 1   
    99   90   91 ar  
   100   90  100 1   
   101   91   92 1   
   102   92  101 1   
   103  102  103 1   
   104  102  110 1   
   105  103  104 1   
   106  103  106 1   
   107  103  111 1   
   108  104  105 2   
   109  104  121 1   
   110  106  107 1   
   111  106  108 1   
   112  106  112 1   
   113  107  109 1   
   114  107  113 1   
   115  107  114 1   
   116  108  115 1   
   117  108  116 1   
   118  108  117 1   
   119  109  118 1   
   120  109  119 1   
   121  109  120 1   
   122  121  122 1   
   123  121  127 1   
   124  122  123 1   
   125  122  125 1   
   126  122  128 1   
   127  123  124 2   
   128  123  132 1   
   129  125  126 1   
   130  125  129 1   
   131  125  130 1   
   132  126  131 1   
   133  132  133 1   
   134  132  137 1   
   135  133  134 1   
   136  133  136 1   
   137  133  138 1   
   138  134  135 2   
   139  134  142 1   
   140  136  139 1   
   141  136  140 1   
   142  136  141 1   
   143  142  143 1   
   144  142  147 1   
   145  143  144 1   
   146  143  146 1   
   147  143  148 1   
   148  144  145 2   
   149  144  152 1   
   150  146  149 1   
   151  146  150 1   
   152  146  151 1   
   153  152  153 1   
   154  152  161 1   
   155  153  154 1   
   156  153  156 1   
   157  153  162 1   
   158  154  155 2   
   159  154  167 1   
   160  156  157 1   
   161  156  163 1   
   162  156  164 1   
   163  157  158 1   
   164  157  165 1   
   165  157  166 1   
   166  158  159 1   
   167  158  160 1   
   168  167  168 1   
   169  167  172 1   
   170  168  169 1   
   171  168  170 1   
   172  168  171 1   
   173  174  175 1   
   174  174  176 1   
   175  177  178 1   
   176  177  179 1   
   177  180  181 1   
   178  180  182 1   
@<TRIPOS>SUBSTRUCTURE
     1 MOL         1 TEMP              0 ****  ****    0 ROOT
