@<TRIPOS>MOLECULE
MOL
  189   185     1     0     0
SMALL
resp


@<TRIPOS>ATOM
      1 C1         -0.0440    3.3790   -4.5440 c3        1 MOL     -0.381061
      2 C2          0.4530    3.0010   -3.1740 c         1 MOL      0.506532
      3 O1         -0.1360    3.2540   -2.1530 o         1 MOL     -0.469651
      4 H1         -0.8510    2.7070   -4.8360 hc        1 MOL      0.101814
      5 H2         -0.4160    4.4040   -4.5270 hc        1 MOL      0.101814
      6 H3          0.7720    3.3000   -5.2630 hc        1 MOL      0.101814
      7 N1          1.6430    2.3590   -3.2100 n         1 MOL     -0.501209
      8 C3          2.2890    1.6780   -2.0860 c3        1 MOL      0.473494
      9 C4          2.9730    2.7730   -1.2350 c         1 MOL      0.326418
     10 O2          4.1880    2.7770   -1.1610 o         1 MOL     -0.431368
     11 C5          3.0960    0.5390   -2.6980 c3        1 MOL     -0.378496
     12 C6          3.9380   -0.1670   -1.6210 c         1 MOL      0.596175
     13 O3          3.5220   -0.0370   -0.3870 o         1 MOL     -0.564618
     14 O4          5.0360   -0.6830   -1.8610 o         1 MOL     -0.564618
     15 H4          2.0560    2.3390   -4.1250 hn        1 MOL      0.284475
     16 H5          1.5690    1.2470   -1.3930 h1        1 MOL     -0.092560
     17 H6          3.7740    0.9810   -3.4190 hc        1 MOL      0.091978
     18 H7          2.4080   -0.2010   -3.1040 hc        1 MOL      0.091978
     19 N2          2.2720    3.7130   -0.6200 n         1 MOL     -0.388498
     20 C7          2.8020    4.9730   -0.0120 c3        1 MOL     -0.128920
     21 C8          3.6840    4.8100    1.2360 c         1 MOL      0.506097
     22 O5          4.3720    5.7260    1.6410 o         1 MOL     -0.564497
     23 C9          1.6920    6.0340    0.1880 c3        1 MOL     -0.030544
     24 C10         1.0790    6.6760   -1.0780 c3        1 MOL      0.241628
     25 C11         0.3100    7.9330   -0.7490 c3        1 MOL     -0.165674
     26 C12        -0.1410    8.6160   -2.0690 c3        1 MOL     -0.109466
     27 N3         -1.2270    7.8980   -2.7880 n4        1 MOL     -0.405666
     28 H8          1.2780    3.5510   -0.6200 hn        1 MOL      0.266208
     29 H9          3.5080    5.4020   -0.7380 h1        1 MOL      0.122965
     30 H10         2.0120    6.8840    0.7960 hc        1 MOL      0.037184
     31 H11         0.8940    5.5590    0.7650 hc        1 MOL      0.037184
     32 H12         0.3250    6.0010   -1.4850 hc        1 MOL     -0.048508
     33 H13         1.8440    6.9740   -1.7870 hc        1 MOL     -0.048508
     34 H14         1.0400    8.6540   -0.3940 hc        1 MOL      0.082399
     35 H15        -0.4220    7.7160    0.0300 hc        1 MOL      0.082399
     36 H16         0.7200    8.8620   -2.6780 hx        1 MOL      0.136731
     37 H17        -0.6200    9.5710   -1.8550 hx        1 MOL      0.136731
     38 H18        -0.9080    7.0930   -3.2990 hn        1 MOL      0.350470
     39 H19        -1.8050    7.4370   -2.1080 hn        1 MOL      0.350470
     40 H20        -1.6880    8.4910   -3.4690 hn        1 MOL      0.350470
     41 N4          3.6590    3.6110    1.8650 n         1 MOL     -0.168768
     42 C13         4.5320    3.3110    3.0460 c3        1 MOL     -0.000922
     43 C14         5.7150    2.4200    2.5420 c         1 MOL      0.315810
     44 O6          6.6530    2.1400    3.3350 o         1 MOL     -0.490552
     45 C15         3.7010    2.7430    4.1770 c3        1 MOL     -0.224438
     46 C16         2.8090    1.5920    3.8390 c         1 MOL      0.880901
     47 O7          3.0490    0.9690    2.7770 o         1 MOL     -0.756054
     48 O8          1.8230    1.3860    4.5550 o         1 MOL     -0.756054
     49 H21         3.0260    2.8700    1.5690 hn        1 MOL      0.161259
     50 H22         4.8960    4.2300    3.4890 h1        1 MOL      0.105137
     51 H23         3.0050    3.5110    4.5080 hc        1 MOL      0.046342
     52 H24         4.3430    2.3760    4.9830 hc        1 MOL      0.046342
     53 N5          5.6620    2.0810    1.2490 n         1 MOL     -0.004572
     54 C17         6.6770    1.4220    0.4420 c3        1 MOL     -0.098268
     55 C18         7.2660    0.1900    1.0340 c         1 MOL      0.430011
     56 O9          8.4290    0.1760    1.4460 o         1 MOL     -0.534924
     57 H25         4.9170    2.5150    0.7000 hn        1 MOL      0.045199
     58 H26         7.5600    2.0510    0.3800 h1        1 MOL      0.064428
     59 H27         6.3270    1.2490   -0.5810 h1        1 MOL      0.064428
     60 N6          6.3830   -0.8160    1.1610 n         1 MOL     -0.072204
     61 C19         6.7210   -2.1140    1.6520 c3        1 MOL     -0.003555
     62 C20         6.9730   -3.1640    0.5510 c         1 MOL      0.394935
     63 O10         7.4770   -4.2160    0.8770 o         1 MOL     -0.526164
     64 C21         5.7420   -2.5940    2.7540 c3        1 MOL     -0.109852
     65 C22         4.3130   -2.4720    2.4460 c         1 MOL      0.770526
     66 O11         3.4510   -2.1650    3.3100 o         1 MOL     -0.722133
     67 O12         3.9210   -2.6080    1.2760 o         1 MOL     -0.722133
     68 H28         5.4810   -0.7130    0.7280 hn        1 MOL     -0.008945
     69 H29         7.6640   -1.9950    2.1910 h1        1 MOL      0.084498
     70 H30         5.9110   -1.9120    3.5810 hc        1 MOL      0.044307
     71 H31         5.9760   -3.5960    3.1210 hc        1 MOL      0.044307
     72 N7          6.5630   -2.8700   -0.6750 n         1 MOL     -0.247458
     73 C23         6.4830   -3.8310   -1.7740 c3        1 MOL     -0.018022
     74 C24         5.0430   -4.2200   -2.1970 c         1 MOL      0.449135
     75 O13         4.9430   -5.0180   -3.1230 o         1 MOL     -0.550097
     76 H32         6.1300   -1.9650   -0.8390 hn        1 MOL      0.181525
     77 H33         6.9880   -4.7080   -1.3650 h1        1 MOL      0.073859
     78 H34         7.0870   -3.4710   -2.6110 h1        1 MOL      0.073859
     79 N8          3.9580   -3.6580   -1.5950 n         1 MOL     -0.146231
     80 C25         2.5710   -4.2650   -1.7310 c3        1 MOL     -0.398307
     81 C26         1.4470   -3.2990   -1.6560 c         1 MOL      0.883979
     82 O14         1.2990   -2.4520   -0.7440 o         1 MOL     -0.720271
     83 C27         2.3150   -5.2620   -0.6600 c3        1 MOL      0.496613
     84 C28         3.0080   -6.6480   -0.8980 c3        1 MOL     -0.474530
     85 O15         2.6530   -4.7720    0.5910 oh        1 MOL     -0.634824
     86 H35         4.1530   -2.9000   -0.9560 hn        1 MOL      0.149173
     87 H36         2.4260   -4.7590   -2.6950 h1        1 MOL      0.150439
     88 H37         1.2550   -5.5410   -0.6550 h1        1 MOL      0.002963
     89 H38         3.3330   -4.1020    0.4970 ho        1 MOL      0.431853
     90 H39         2.6860   -6.9990   -1.8780 hc        1 MOL      0.120713
     91 H40         4.0890   -6.5470   -1.0090 hc        1 MOL      0.120713
     92 H41         2.8340   -7.3910   -0.1190 hc        1 MOL      0.120713
     93 N9          0.5740   -3.3280   -2.6580 n         1 MOL     -0.685922
     94 C29        -0.6540   -2.5460   -2.6980 c3        1 MOL      0.024602
     95 C30        -1.7670   -3.1040   -1.7810 c         1 MOL      0.477464
     96 O16        -2.1600   -4.2370   -1.9520 o         1 MOL     -0.569116
     97 C31        -1.1630   -2.2230   -4.0730 c3        1 MOL      0.335888
     98 C32        -0.0100   -1.6130   -4.9430 c3        1 MOL     -0.050067
     99 C33        -2.3080   -1.2170   -3.9070 c3        1 MOL     -0.504689
    100 C34        -0.2180   -1.3900   -6.4480 c3        1 MOL     -0.157094
    101 H42         0.9010   -3.7620   -3.5120 hn        1 MOL      0.303551
    102 H43        -0.3580   -1.6070   -2.2190 h1        1 MOL      0.095647
    103 H44        -1.6150   -3.0890   -4.5660 hc        1 MOL     -0.024429
    104 H45         0.9490   -2.1320   -4.8780 hc        1 MOL      0.030565
    105 H46         0.2480   -0.6920   -4.4140 hc        1 MOL      0.030565
    106 H47        -3.1920   -1.7080   -3.5080 hc        1 MOL      0.101090
    107 H48        -1.8760   -0.3720   -3.3730 hc        1 MOL      0.101090
    108 H49        -2.4170   -0.8970   -4.9430 hc        1 MOL      0.101090
    109 H50        -0.3600   -2.3040   -7.0190 hc        1 MOL      0.042585
    110 H51        -1.0600   -0.6940   -6.5790 hc        1 MOL      0.042585
    111 H52         0.6040   -0.8290   -6.8960 hc        1 MOL      0.042585
    112 N10        -2.4700   -2.2970   -0.9740 n         1 MOL     -0.096001
    113 C35        -3.6910   -2.7450   -0.2120 c3        1 MOL      0.102675
    114 C36        -4.9190   -2.0730   -0.8220 c         1 MOL      0.173702
    115 O17        -4.8700   -1.2680   -1.7490 o         1 MOL     -0.304285
    116 C37        -3.5730   -2.2700    1.2870 c3        1 MOL      0.021152
    117 C38        -2.2390   -2.5660    1.9830 c3        1 MOL     -0.450242
    118 O18        -3.8100   -0.9520    1.4650 oh        1 MOL     -0.262278
    119 H53        -2.1570   -1.3470   -0.8350 hn        1 MOL      0.210658
    120 H54        -3.8910   -3.8100   -0.2360 h1        1 MOL      0.082053
    121 H55        -4.3710   -2.7910    1.8020 h1        1 MOL     -0.008209
    122 H56        -3.4940   -0.5260    2.2610 ho        1 MOL      0.345318
    123 H57        -2.0440   -3.6060    1.7310 hc        1 MOL      0.124182
    124 H58        -1.4320   -1.9890    1.5430 hc        1 MOL      0.124182
    125 H59        -2.2750   -2.4280    3.0680 hc        1 MOL      0.124182
    126 N11        -6.1490   -2.4790   -0.4240 n         1 MOL     -0.171012
    127 C39        -7.4550   -1.8840   -0.7040 c3        1 MOL     -0.355868
    128 C40        -7.5830   -0.4880   -0.0490 c         1 MOL      0.536992
    129 O19        -8.3590    0.3530   -0.5160 o         1 MOL     -0.491965
    130 C41        -8.5830   -2.8490   -0.3340 c3        1 MOL      0.399602
    131 C42        -8.5620   -4.1890   -1.1150 c3        1 MOL     -0.299080
    132 O20        -8.4010   -3.0960    1.0090 oh        1 MOL     -0.601513
    133 H60        -6.2110   -3.3350    0.1180 hn        1 MOL      0.265532
    134 H61        -7.5340   -1.6420   -1.7650 h1        1 MOL      0.158936
    135 H62        -9.5230   -2.3540   -0.5850 h1        1 MOL      0.014681
    136 H63        -9.1420   -2.6210    1.3910 ho        1 MOL      0.368832
    137 H64        -8.6410   -4.0330   -2.1910 hc        1 MOL      0.088718
    138 H65        -7.6290   -4.7090   -0.8960 hc        1 MOL      0.088718
    139 H66        -9.3870   -4.8290   -0.8250 hc        1 MOL      0.088718
    140 N12        -6.8030   -0.2410    1.0250 n         1 MOL     -0.340524
    141 C43        -6.7780    1.1070    1.5920 c3        1 MOL     -0.115103
    142 C44        -6.0930    2.0970    0.5810 c         1 MOL      0.355861
    143 O21        -6.6880    3.0510    0.1030 o         1 MOL     -0.460075
    144 C45        -6.3430    1.1150    3.0360 c3        1 MOL      0.062537
    145 C46        -7.2100    0.1210    3.8170 c3        1 MOL     -0.093728
    146 C47        -6.9130    0.1730    5.3590 c3        1 MOL      0.081680
    147 C48        -7.5080   -1.0770    6.0390 c3        1 MOL     -0.026782
    148 N13        -6.9570   -1.2380    7.4420 n4        1 MOL     -0.216487
    149 H67        -6.3610   -1.0280    1.4810 hn        1 MOL      0.208435
    150 H68        -7.8310    1.3820    1.6510 h1        1 MOL      0.104096
    151 H69        -6.4940    2.1100    3.4400 hc        1 MOL      0.010825
    152 H70        -5.2720    0.9480    3.1040 hc        1 MOL      0.010825
    153 H71        -6.9860   -0.9080    3.5250 hc        1 MOL      0.043454
    154 H72        -8.2720    0.3740    3.7300 hc        1 MOL      0.043454
    155 H73        -7.1120    1.1110    5.8620 hc        1 MOL      0.012960
    156 H74        -5.8270    0.1080    5.3920 hc        1 MOL      0.012960
    157 H75        -7.3390   -1.9970    5.4810 hx        1 MOL      0.090351
    158 H76        -8.5870   -1.0150    6.1860 hx        1 MOL      0.090351
    159 H77        -7.4470   -0.6390    8.0880 hn        1 MOL      0.259196
    160 H78        -7.0210   -2.1790    7.8010 hn        1 MOL      0.259196
    161 H79        -5.9840   -0.9840    7.5340 hn        1 MOL      0.259196
    162 N14        -4.8680    1.7310    0.2050 n         1 MOL     -0.026450
    163 C49        -4.0770    2.2950   -0.8590 c3        1 MOL     -0.353407
    164 C50        -4.7670    2.4210   -2.1850 c         1 MOL      0.595594
    165 O22        -4.8640    3.5510   -2.7040 o         1 MOL     -0.608848
    166 C51        -2.7020    1.6200   -0.8320 c3        1 MOL      0.011214
    167 C52        -1.8510    2.0130    0.3780 c3        1 MOL     -0.366501
    168 C53        -0.5730    1.1100    0.5170 c         1 MOL      0.895367
    169 O23        -0.6870   -0.1100    0.3720 o         1 MOL     -0.764458
    170 O24         0.5150    1.4640    0.9810 o         1 MOL     -0.764458
    171 H80        -4.4720    0.9080    0.6180 hn        1 MOL      0.142262
    172 H81        -3.9150    3.3310   -0.5650 h1        1 MOL      0.137234
    173 H82        -2.1060    1.7830   -1.7310 hc        1 MOL      0.031755
    174 H83        -2.8190    0.5330   -0.8300 hc        1 MOL      0.031755
    175 H84        -2.4700    1.9280    1.2680 hc        1 MOL      0.076677
    176 H85        -1.6530    3.0820    0.2890 hc        1 MOL      0.076677
    177 N15        -5.1480    1.3320   -2.8030 n         1 MOL     -0.148737
    178 C54        -5.9190    1.2780   -4.1070 c3        1 MOL     -0.195251
    179 H86        -6.5210    0.3700   -4.1360 h1        1 MOL      0.088797
    180 H87        -6.5710    2.1480   -4.1810 h1        1 MOL      0.088797
    181 H88        -5.2190    1.2770   -4.9440 h1        1 MOL      0.088797
    182 H89        -4.9830    0.4460   -2.3370 hn        1 MOL      0.153457
    183 Ca1         1.7470   -0.7610    1.2150 Ca        1 MOL      1.760661
    184 O25         0.2320   -0.4590    3.3870 oh        1 MOL     -0.825730
    185 H90         0.6040    0.3320    3.7740 ho        1 MOL      0.390806
    186 H91         0.4190   -1.1470    4.0320 ho        1 MOL      0.390806
    187 O26         0.9080   -3.2860    2.0500 oh        1 MOL     -0.825730
    188 H92         1.5100   -3.9020    1.6350 ho        1 MOL      0.390806
    189 H93         0.6230   -3.7370    2.8520 ho        1 MOL      0.390806
@<TRIPOS>BOND
     1    1    2 1   
     2    1    4 1   
     3    1    5 1   
     4    1    6 1   
     5    2    3 2   
     6    2    7 1   
     7    7    8 1   
     8    7   15 1   
     9    8    9 1   
    10    8   11 1   
    11    8   16 1   
    12    9   10 2   
    13    9   19 1   
    14   11   12 1   
    15   11   17 1   
    16   11   18 1   
    17   12   13 1   
    18   12   14 1   
    19   19   20 1   
    20   19   28 1   
    21   20   21 1   
    22   20   23 1   
    23   20   29 1   
    24   21   22 2   
    25   21   41 1   
    26   23   24 1   
    27   23   30 1   
    28   23   31 1   
    29   24   25 1   
    30   24   32 1   
    31   24   33 1   
    32   25   26 1   
    33   25   34 1   
    34   25   35 1   
    35   26   27 1   
    36   26   36 1   
    37   26   37 1   
    38   27   38 1   
    39   27   39 1   
    40   27   40 1   
    41   41   42 1   
    42   41   49 1   
    43   42   43 1   
    44   42   45 1   
    45   42   50 1   
    46   43   44 2   
    47   43   53 1   
    48   45   46 1   
    49   45   51 1   
    50   45   52 1   
    51   46   47 1   
    52   46   48 1   
    53   53   54 1   
    54   53   57 1   
    55   54   55 1   
    56   54   58 1   
    57   54   59 1   
    58   55   56 2   
    59   55   60 1   
    60   60   61 1   
    61   60   68 1   
    62   61   62 1   
    63   61   64 1   
    64   61   69 1   
    65   62   63 2   
    66   62   72 1   
    67   64   65 1   
    68   64   70 1   
    69   64   71 1   
    70   65   66 1   
    71   65   67 1   
    72   72   73 1   
    73   72   76 1   
    74   73   74 1   
    75   73   77 1   
    76   73   78 1   
    77   74   75 2   
    78   74   79 1   
    79   79   80 1   
    80   79   86 1   
    81   80   81 1   
    82   80   83 1   
    83   80   87 1   
    84   81   82 2   
    85   81   93 1   
    86   83   84 1   
    87   83   85 1   
    88   83   88 1   
    89   84   90 1   
    90   84   91 1   
    91   84   92 1   
    92   85   89 1   
    93   93   94 1   
    94   93  101 1   
    95   94   95 1   
    96   94   97 1   
    97   94  102 1   
    98   95   96 2   
    99   95  112 1   
   100   97   98 1   
   101   97   99 1   
   102   97  103 1   
   103   98  100 1   
   104   98  104 1   
   105   98  105 1   
   106   99  106 1   
   107   99  107 1   
   108   99  108 1   
   109  100  109 1   
   110  100  110 1   
   111  100  111 1   
   112  112  113 1   
   113  112  119 1   
   114  113  114 1   
   115  113  116 1   
   116  113  120 1   
   117  114  115 2   
   118  114  126 1   
   119  116  117 1   
   120  116  118 1   
   121  116  121 1   
   122  117  123 1   
   123  117  124 1   
   124  117  125 1   
   125  118  122 1   
   126  126  127 1   
   127  126  133 1   
   128  127  128 1   
   129  127  130 1   
   130  127  134 1   
   131  128  129 2   
   132  128  140 1   
   133  130  131 1   
   134  130  132 1   
   135  130  135 1   
   136  131  137 1   
   137  131  138 1   
   138  131  139 1   
   139  132  136 1   
   140  140  141 1   
   141  140  149 1   
   142  141  142 1   
   143  141  144 1   
   144  141  150 1   
   145  142  143 2   
   146  142  162 1   
   147  144  145 1   
   148  144  151 1   
   149  144  152 1   
   150  145  146 1   
   151  145  153 1   
   152  145  154 1   
   153  146  147 1   
   154  146  155 1   
   155  146  156 1   
   156  147  148 1   
   157  147  157 1   
   158  147  158 1   
   159  148  159 1   
   160  148  160 1   
   161  148  161 1   
   162  162  163 1   
   163  162  171 1   
   164  163  164 1   
   165  163  166 1   
   166  163  172 1   
   167  164  165 2   
   168  164  177 1   
   169  166  167 1   
   170  166  173 1   
   171  166  174 1   
   172  167  168 1   
   173  167  175 1   
   174  167  176 1   
   175  168  169 1   
   176  168  170 1   
   177  177  178 1   
   178  177  182 1   
   179  178  179 1   
   180  178  180 1   
   181  178  181 1   
   182  184  185 1   
   183  184  186 1   
   184  187  188 1   
   185  187  189 1   
@<TRIPOS>SUBSTRUCTURE
     1 MOL         1 TEMP              0 ****  ****    0 ROOT
