@<TRIPOS>MOLECULE
MOL
  179   176     1     0     0
SMALL
resp


@<TRIPOS>ATOM
      1 C1          2.8440    1.9660    5.4150 c3        1 MOL     -0.339867
      2 C2          1.9510    1.7480    4.1760 c         1 MOL      0.767674
      3 O1          2.6240    1.6240    3.1350 o         1 MOL     -0.593404
      4 H1          3.8720    2.1420    5.0960 hc        1 MOL      0.088814
      5 H2          2.4860    2.8290    5.9750 hc        1 MOL      0.088814
      6 H3          2.8090    1.0790    6.0500 hc        1 MOL      0.088814
      7 N1          0.6120    1.8500    4.1190 n         1 MOL     -0.696972
      8 C3         -0.0770    2.0600    2.8590 c3        1 MOL      0.145410
      9 C4          0.0860    3.5120    2.4170 c         1 MOL      0.565418
     10 O2         -0.2380    4.4870    3.0900 o         1 MOL     -0.568671
     11 C5         -1.5340    1.5480    3.1910 c3        1 MOL     -0.406502
     12 C6         -2.4650    1.5510    2.0010 c         1 MOL      0.870791
     13 O3         -3.6730    1.1590    2.0850 o         1 MOL     -0.759717
     14 O4         -2.0260    1.8370    0.8490 o         1 MOL     -0.759717
     15 H4          0.0820    1.9430    4.9730 hn        1 MOL      0.354819
     16 H5          0.3840    1.4330    2.1000 h1        1 MOL      0.051721
     17 H6         -1.8580    2.2270    3.9870 hc        1 MOL      0.113190
     18 H7         -1.5870    0.5260    3.5500 hc        1 MOL      0.113190
     19 N2          0.7160    3.6810    1.2870 n         1 MOL     -0.291464
     20 C7          1.0810    4.9400    0.6610 c3        1 MOL      0.084908
     21 C8         -0.0220    5.5270   -0.2910 c         1 MOL      0.413286
     22 O5         -0.1850    6.7460   -0.3020 o         1 MOL     -0.547286
     23 C9          2.3770    4.8550   -0.1900 c3        1 MOL     -0.061015
     24 C10         3.1130    6.2060   -0.3020 c3        1 MOL     -0.141213
     25 C11         4.4300    6.1060   -1.1970 c3        1 MOL      0.052832
     26 C12         5.1010    7.4290   -1.1870 c3        1 MOL      0.002954
     27 N3          6.3800    7.4570   -1.9500 n4        1 MOL     -0.276658
     28 H8          0.8820    2.7880    0.8530 hn        1 MOL      0.159982
     29 H9          1.2470    5.7110    1.4150 h1        1 MOL      0.074674
     30 H10         2.2240    4.5150   -1.2090 hc        1 MOL      0.065941
     31 H11         2.9940    4.2230    0.4430 hc        1 MOL      0.065941
     32 H12         3.4130    6.4830    0.7110 hc        1 MOL      0.057797
     33 H13         2.5460    7.0750   -0.6440 hc        1 MOL      0.057797
     34 H14         4.1270    5.8200   -2.2050 hc        1 MOL      0.016784
     35 H15         5.0010    5.2300   -0.8960 hc        1 MOL      0.016784
     36 H16         5.3990    7.6000   -0.1520 hx        1 MOL      0.087477
     37 H17         4.4240    8.2230   -1.5110 hx        1 MOL      0.087477
     38 H18         6.1820    7.5890   -2.9300 hn        1 MOL      0.305248
     39 H19         6.9040    8.2800   -1.6970 hn        1 MOL      0.305248
     40 H20         6.9270    6.6080   -1.8890 hn        1 MOL      0.305248
     41 N4         -0.8310    4.6520   -0.9300 n         1 MOL     -0.328906
     42 C13        -1.9340    5.1160   -1.8760 c3        1 MOL      0.198851
     43 C14        -3.4010    4.8900   -1.3060 c         1 MOL      0.307003
     44 O6         -4.3830    5.4860   -1.7740 o         1 MOL     -0.530291
     45 C15        -1.7580    4.3560   -3.1900 c3        1 MOL     -0.186741
     46 C16        -1.9470    2.8440   -3.2610 c         1 MOL      0.844886
     47 O7         -1.7460    2.2000   -4.3260 o         1 MOL     -0.742461
     48 O8         -2.3160    2.1510   -2.3020 o         1 MOL     -0.742461
     49 H21        -0.4260    3.7300   -0.8540 hn        1 MOL      0.225299
     50 H22        -1.7240    6.1730   -2.0470 h1        1 MOL      0.073290
     51 H23        -0.7540    4.5150   -3.5710 hc        1 MOL      0.025338
     52 H24        -2.3860    4.9070   -3.8920 hc        1 MOL      0.025338
     53 N5         -3.6160    4.1610   -0.1920 n         1 MOL     -0.010432
     54 C17        -4.8350    4.1200    0.5710 c3        1 MOL     -0.353557
     55 C18        -5.8660    3.0890    0.1740 c         1 MOL      0.637593
     56 O9         -7.0180    3.2310    0.5740 o         1 MOL     -0.574449
     57 H25        -2.7740    3.7230    0.1540 hn        1 MOL      0.111664
     58 H26        -5.2810    5.0850    0.3310 h1        1 MOL      0.144660
     59 H27        -4.6350    4.1400    1.6440 h1        1 MOL      0.144660
     60 N6         -5.5240    2.1100   -0.7170 n         1 MOL     -0.262376
     61 C19        -6.4420    1.1310   -1.2120 c3        1 MOL     -0.108818
     62 C20        -6.9630   -0.0020   -0.2100 c         1 MOL      0.384506
     63 O10        -7.8450   -0.8600   -0.5690 o         1 MOL     -0.525081
     64 C21        -5.8550    0.4900   -2.5030 c3        1 MOL     -0.142687
     65 C22        -4.8950   -0.6610   -2.1390 c         1 MOL      0.494118
     66 N7         -5.1480   -1.8100   -2.6050 n         1 MOL     -0.626819
     67 O11        -3.9680   -0.4840   -1.3360 o         1 MOL     -0.633873
     68 H28        -4.5410    1.9240   -0.8590 hn        1 MOL      0.185216
     69 H29        -7.3050    1.6930   -1.5590 h1        1 MOL      0.126978
     70 H30        -5.3620    1.2320   -3.1310 hc        1 MOL      0.087052
     71 H31        -6.6390    0.0850   -3.1530 hc        1 MOL      0.087052
     72 H32        -5.9440   -1.8850   -3.2250 hn        1 MOL      0.332777
     73 H33        -4.6140   -2.6410   -2.4280 hn        1 MOL      0.332777
     74 N8         -6.3670   -0.0620    0.9830 n         1 MOL     -0.112938
     75 C23        -6.7540   -0.8400    2.1440 c3        1 MOL     -0.334757
     76 C24        -5.7750   -1.9430    2.5850 c         1 MOL      0.612168
     77 O12        -6.0980   -2.6740    3.4150 o         1 MOL     -0.547880
     78 H34        -5.6880    0.6630    1.1530 hn        1 MOL      0.259162
     79 H35        -7.7880   -1.1400    2.0060 h1        1 MOL      0.141112
     80 H36        -6.7790   -0.1760    3.0100 h1        1 MOL      0.141112
     81 N9         -4.6660   -2.0530    1.8520 n         1 MOL     -0.353982
     82 C25        -3.4920   -2.9530    2.1080 c3        1 MOL     -0.006665
     83 C26        -2.0850   -2.3660    1.7120 c         1 MOL      0.624917
     84 O13        -2.0170   -1.4100    0.9500 o         1 MOL     -0.728109
     85 C27        -3.7270   -4.3790    1.5500 c3        1 MOL     -0.191553
     86 C28        -4.1740   -4.3690    0.0990 ca        1 MOL      0.131692
     87 C29        -3.1670   -4.4050   -0.8680 ca        1 MOL     -0.167945
     88 C30        -5.5500   -4.6880   -0.2600 ca        1 MOL     -0.167945
     89 C31        -3.5130   -4.7510   -2.2350 ca        1 MOL     -0.237695
     90 C32        -5.8600   -4.8580   -1.6150 ca        1 MOL     -0.237695
     91 C33        -4.8310   -4.9940   -2.5780 ca        1 MOL      0.241329
     92 O14        -5.2190   -5.4390   -3.8070 oh        1 MOL     -0.459501
     93 H37        -4.6440   -1.4740    1.0250 hn        1 MOL      0.340530
     94 H38        -3.4880   -3.0520    3.2010 h1        1 MOL      0.077384
     95 H39        -4.5030   -4.9430    2.0750 hc        1 MOL      0.073849
     96 H40        -2.7820   -4.9080    1.4910 hc        1 MOL      0.073849
     97 H41        -2.1700   -4.0190   -0.7260 ha        1 MOL      0.176007
     98 H42        -6.3190   -4.6610    0.5010 ha        1 MOL      0.176007
     99 H43        -2.7460   -4.7310   -2.9990 ha        1 MOL      0.148970
    100 H44        -6.8630   -5.0990   -1.9170 ha        1 MOL      0.148970
    101 H45        -4.5400   -5.6150   -4.4570 ho        1 MOL      0.348521
    102 N10        -1.0710   -2.8980    2.3130 n         1 MOL     -0.415666
    103 C34         0.4180   -2.7680    2.1550 c3        1 MOL      0.034598
    104 C35         0.8740   -3.7530    1.1090 c         1 MOL      0.370440
    105 O15         0.6000   -4.9550    1.2010 o         1 MOL     -0.546700
    106 C36         1.1650   -2.9750    3.5380 c3        1 MOL      0.336087
    107 C37         0.6520   -1.9290    4.5040 c3        1 MOL     -0.044990
    108 C38         2.6190   -2.6300    3.1620 c3        1 MOL     -0.402035
    109 C39         1.1140   -2.3990    5.8890 c3        1 MOL     -0.218368
    110 H46        -1.3360   -3.4260    3.1310 hn        1 MOL      0.229436
    111 H47         0.6010   -1.7700    1.7820 h1        1 MOL      0.090819
    112 H48         1.0720   -4.0200    3.8280 hc        1 MOL     -0.024631
    113 H49        -0.4300   -1.8320    4.6110 hc        1 MOL      0.037008
    114 H50         1.0920   -0.9730    4.2320 hc        1 MOL      0.037008
    115 H51         3.3050   -2.6280    4.0020 hc        1 MOL      0.084541
    116 H52         2.9920   -3.4340    2.5320 hc        1 MOL      0.084541
    117 H53         2.6510   -1.6330    2.7190 hc        1 MOL      0.084541
    118 H54         2.1540   -2.7420    5.9320 hc        1 MOL      0.049238
    119 H55         0.8390   -1.6760    6.6480 hc        1 MOL      0.049238
    120 H56         0.5150   -3.2820    6.1240 hc        1 MOL      0.049238
    121 N11         1.5720   -3.2390    0.0710 n         1 MOL     -0.021313
    122 C40         2.3710   -3.9850   -0.9500 c3        1 MOL     -0.136363
    123 C41         3.8270   -3.7720   -0.7390 c         1 MOL      0.452720
    124 O16         4.2770   -2.9080   -0.0080 o         1 MOL     -0.358281
    125 C42         1.8940   -3.7290   -2.3930 c3        1 MOL      0.185106
    126 O17         0.6300   -4.3060   -2.5620 oh        1 MOL     -0.687656
    127 H57         1.7770   -2.2490    0.0390 hn        1 MOL      0.191282
    128 H58         2.1780   -5.0260   -0.6910 h1        1 MOL      0.105952
    129 H59         2.5000   -4.2650   -3.1200 h1        1 MOL      0.047944
    130 H60         1.8530   -2.6700   -2.6440 h1        1 MOL      0.047944
    131 H61         0.7220   -5.2360   -2.7940 ho        1 MOL      0.438984
    132 N12         4.6750   -4.6260   -1.3520 n         1 MOL     -0.590159
    133 C43         6.0860   -4.7470   -1.0700 c3        1 MOL      0.339459
    134 C44         6.8410   -3.4640   -1.2410 c         1 MOL      0.364915
    135 O18         7.6320   -3.1430   -0.3620 o         1 MOL     -0.498150
    136 C45         6.6320   -5.8020   -1.9980 c3        1 MOL     -0.330968
    137 H62         4.2960   -5.2500   -2.0450 hn        1 MOL      0.313887
    138 H63         6.2690   -5.1570   -0.0760 h1        1 MOL      0.058267
    139 H64         7.7160   -5.8740   -1.9850 hc        1 MOL      0.087708
    140 H65         6.2270   -6.8030   -1.8280 hc        1 MOL      0.087708
    141 H66         6.3070   -5.4420   -2.9740 hc        1 MOL      0.087708
    142 N13         6.5960   -2.6640   -2.3070 n         1 MOL     -0.277503
    143 C46         7.2800   -1.3640   -2.5940 c3        1 MOL      0.061586
    144 C47         6.9170   -0.4140   -1.4530 c         1 MOL      0.355898
    145 O19         7.6560    0.4730   -1.1110 o         1 MOL     -0.516789
    146 C48         6.7080   -0.7030   -3.8480 c3        1 MOL     -0.329023
    147 H67         6.0380   -2.9810   -3.0820 hn        1 MOL      0.200866
    148 H68         8.3390   -1.6220   -2.6350 h1        1 MOL      0.098934
    149 H69         6.8520   -1.3810   -4.6860 hc        1 MOL      0.100897
    150 H70         5.6590   -0.4370   -3.7480 hc        1 MOL      0.100897
    151 H71         7.2530    0.2200   -4.0390 hc        1 MOL      0.100897
    152 N14         5.6900   -0.4950   -0.9120 n         1 MOL      0.081635
    153 C49         5.3410    0.5550    0.0340 c3        1 MOL     -0.347371
    154 C50         5.9580    0.1810    1.4150 c         1 MOL      0.487348
    155 O20         6.2490    1.0900    2.2360 o         1 MOL     -0.543520
    156 C51         3.8750    0.7080    0.2290 c3        1 MOL      0.058818
    157 C52         3.0640    0.7800   -1.0660 c3        1 MOL     -0.048243
    158 C53         1.5610    0.7380   -0.7910 c         1 MOL      0.771607
    159 O21         0.8640    1.7410   -0.8520 o         1 MOL     -0.778844
    160 O22         1.0840   -0.3840   -0.5660 o         1 MOL     -0.778844
    161 H72         5.0820   -1.2570   -1.1840 hn        1 MOL      0.065614
    162 H73         5.7190    1.5300   -0.2820 h1        1 MOL      0.160580
    163 H74         3.6030    1.6440    0.7180 hc        1 MOL      0.042646
    164 H75         3.4880   -0.0560    0.9130 hc        1 MOL      0.042646
    165 H76         3.2950   -0.0280   -1.7660 hc        1 MOL     -0.022759
    166 H77         3.3570    1.6910   -1.5990 hc        1 MOL     -0.022759
    167 N15         6.2230   -1.1210    1.6090 n         1 MOL     -0.068665
    168 C54         7.0180   -1.5230    2.8160 c3        1 MOL     -0.249126
    169 H78         8.0760   -1.3410    2.6300 h1        1 MOL      0.105048
    170 H79         6.6950   -0.9370    3.6760 h1        1 MOL      0.105048
    171 H80         6.8620   -2.5830    3.0180 h1        1 MOL      0.105048
    172 H81         5.8060   -1.7940    0.9830 hn        1 MOL      0.070507
    173 Ca1        -1.3650    0.2150   -1.0400 Ca        1 MOL      1.780083
    174 O23        -0.2940    0.1220   -3.6700 oh        1 MOL     -0.827229
    175 H82        -0.0890   -0.4410   -4.4180 ho        1 MOL      0.383675
    176 H83        -0.7860    0.8510   -4.0520 ho        1 MOL      0.383675
    177 O24        -1.0320   -2.1630   -2.2520 oh        1 MOL     -0.827229
    178 H84        -1.2640   -2.0950   -3.1710 ho        1 MOL      0.383675
    179 H85        -0.5640   -2.9960   -2.1760 ho        1 MOL      0.383675
@<TRIPOS>BOND
     1    1    2 1   
     2    1    4 1   
     3    1    5 1   
     4    1    6 1   
     5    2    3 2   
     6    2    7 1   
     7    7    8 1   
     8    7   15 1   
     9    8    9 1   
    10    8   11 1   
    11    8   16 1   
    12    9   10 2   
    13    9   19 1   
    14   11   12 1   
    15   11   17 1   
    16   11   18 1   
    17   12   13 1   
    18   12   14 1   
    19   19   20 1   
    20   19   28 1   
    21   20   21 1   
    22   20   23 1   
    23   20   29 1   
    24   21   22 2   
    25   21   41 1   
    26   23   24 1   
    27   23   30 1   
    28   23   31 1   
    29   24   25 1   
    30   24   32 1   
    31   24   33 1   
    32   25   26 1   
    33   25   34 1   
    34   25   35 1   
    35   26   27 1   
    36   26   36 1   
    37   26   37 1   
    38   27   38 1   
    39   27   39 1   
    40   27   40 1   
    41   41   42 1   
    42   41   49 1   
    43   42   43 1   
    44   42   45 1   
    45   42   50 1   
    46   43   44 2   
    47   43   53 1   
    48   45   46 1   
    49   45   51 1   
    50   45   52 1   
    51   46   47 1   
    52   46   48 1   
    53   53   54 1   
    54   53   57 1   
    55   54   55 1   
    56   54   58 1   
    57   54   59 1   
    58   55   56 2   
    59   55   60 1   
    60   60   61 1   
    61   60   68 1   
    62   61   62 1   
    63   61   64 1   
    64   61   69 1   
    65   62   63 2   
    66   62   74 1   
    67   64   65 1   
    68   64   70 1   
    69   64   71 1   
    70   65   66 1   
    71   65   67 2   
    72   66   72 1   
    73   66   73 1   
    74   74   75 1   
    75   74   78 1   
    76   75   76 1   
    77   75   79 1   
    78   75   80 1   
    79   76   77 2   
    80   76   81 1   
    81   81   82 1   
    82   81   93 1   
    83   82   83 1   
    84   82   85 1   
    85   82   94 1   
    86   83   84 2   
    87   83  102 1   
    88   85   86 1   
    89   85   95 1   
    90   85   96 1   
    91   86   87 ar  
    92   86   88 ar  
    93   87   89 ar  
    94   87   97 1   
    95   88   90 ar  
    96   88   98 1   
    97   89   91 ar  
    98   89   99 1   
    99   90   91 ar  
   100   90  100 1   
   101   91   92 1   
   102   92  101 1   
   103  102  103 1   
   104  102  110 1   
   105  103  104 1   
   106  103  106 1   
   107  103  111 1   
   108  104  105 2   
   109  104  121 1   
   110  106  107 1   
   111  106  108 1   
   112  106  112 1   
   113  107  109 1   
   114  107  113 1   
   115  107  114 1   
   116  108  115 1   
   117  108  116 1   
   118  108  117 1   
   119  109  118 1   
   120  109  119 1   
   121  109  120 1   
   122  121  122 1   
   123  121  127 1   
   124  122  123 1   
   125  122  125 1   
   126  122  128 1   
   127  123  124 2   
   128  123  132 1   
   129  125  126 1   
   130  125  129 1   
   131  125  130 1   
   132  126  131 1   
   133  132  133 1   
   134  132  137 1   
   135  133  134 1   
   136  133  136 1   
   137  133  138 1   
   138  134  135 2   
   139  134  142 1   
   140  136  139 1   
   141  136  140 1   
   142  136  141 1   
   143  142  143 1   
   144  142  147 1   
   145  143  144 1   
   146  143  146 1   
   147  143  148 1   
   148  144  145 2   
   149  144  152 1   
   150  146  149 1   
   151  146  150 1   
   152  146  151 1   
   153  152  153 1   
   154  152  161 1   
   155  153  154 1   
   156  153  156 1   
   157  153  162 1   
   158  154  155 2   
   159  154  167 1   
   160  156  157 1   
   161  156  163 1   
   162  156  164 1   
   163  157  158 1   
   164  157  165 1   
   165  157  166 1   
   166  158  159 1   
   167  158  160 1   
   168  167  168 1   
   169  167  172 1   
   170  168  169 1   
   171  168  170 1   
   172  168  171 1   
   173  174  175 1   
   174  174  176 1   
   175  177  178 1   
   176  177  179 1   
@<TRIPOS>SUBSTRUCTURE
     1 MOL         1 TEMP              0 ****  ****    0 ROOT
