@<TRIPOS>MOLECULE
MOL
  189   185     1     0     0
SMALL
resp


@<TRIPOS>ATOM
      1 C1          0.3100   -4.7530    5.5880 c3        1 MOL     -0.475734
      2 C2          0.8370   -4.0000    4.3530 c         1 MOL      0.749004
      3 O1          1.1100   -2.7700    4.3650 o         1 MOL     -0.599702
      4 H1          1.1480   -5.1900    6.1310 hc        1 MOL      0.123202
      5 H2         -0.2220   -4.0580    6.2390 hc        1 MOL      0.123202
      6 H3         -0.3680   -5.5450    5.2690 hc        1 MOL      0.123202
      7 N1          1.1940   -4.7920    3.3410 n         1 MOL     -0.591935
      8 C3          1.8950   -4.2690    2.1460 c3        1 MOL      0.108621
      9 C4          1.8970   -5.2440    0.9410 c         1 MOL      0.582525
     10 O2          2.2920   -6.4070    1.0800 o         1 MOL     -0.585181
     11 C5          3.3270   -3.9820    2.4990 c3        1 MOL     -0.261953
     12 C6          4.1020   -3.3240    1.3450 c         1 MOL      0.815095
     13 O3          5.2410   -2.8790    1.5500 o         1 MOL     -0.733728
     14 O4          3.5130   -3.0610    0.2540 o         1 MOL     -0.733728
     15 H4          1.0010   -5.7660    3.4690 hn        1 MOL      0.325831
     16 H5          1.4130   -3.3260    1.8960 h1        1 MOL      0.072416
     17 H6          3.8630   -4.8910    2.7570 hc        1 MOL      0.060660
     18 H7          3.3460   -3.1980    3.2560 hc        1 MOL      0.060660
     19 N2          1.2660   -4.7770   -0.1480 n         1 MOL     -0.332344
     20 C7          0.9790   -5.5810   -1.3860 c3        1 MOL     -0.114191
     21 C8          1.6550   -4.9930   -2.6610 c         1 MOL      0.573436
     22 O5          1.3750   -5.3170   -3.8070 o         1 MOL     -0.587826
     23 C9         -0.5790   -5.9370   -1.5290 c3        1 MOL      0.180973
     24 C10        -1.3920   -4.8250   -2.2250 c3        1 MOL     -0.097515
     25 C11        -1.1480   -6.3280   -0.1410 c3        1 MOL     -0.104730
     26 C12        -2.9450   -4.7690   -1.9540 c3        1 MOL     -0.110949
     27 H8          1.0010   -3.7980   -0.1740 hn        1 MOL      0.260149
     28 H9          1.4840   -6.5490   -1.3530 h1        1 MOL      0.078735
     29 H10        -0.6170   -6.8450   -2.1390 hc        1 MOL     -0.039192
     30 H11        -1.2040   -4.8780   -3.3000 hc        1 MOL      0.050751
     31 H12        -0.9920   -3.9060   -1.8050 hc        1 MOL      0.050751
     32 H13        -1.2820   -5.3780    0.3700 hc        1 MOL      0.005684
     33 H14        -2.1210   -6.8010   -0.1810 hc        1 MOL      0.005684
     34 H15        -0.4530   -6.8950    0.4840 hc        1 MOL      0.005684
     35 H16        -3.4160   -3.8980   -2.4050 hc        1 MOL      0.028361
     36 H17        -3.4590   -5.6740   -2.2590 hc        1 MOL      0.028361
     37 H18        -3.1110   -4.5520   -0.8940 hc        1 MOL      0.028361
     38 N3          2.6560   -4.1600   -2.4310 n         1 MOL     -0.408339
     39 C13         3.4500   -3.6600   -3.5970 c3        1 MOL      0.004917
     40 C14         4.8120   -3.0100   -3.2870 c         1 MOL      0.360509
     41 O6          5.5780   -2.8680   -4.2800 o         1 MOL     -0.551867
     42 C15         2.6270   -2.5160   -4.2770 c3        1 MOL     -0.221653
     43 C16         2.2540   -1.3560   -3.3300 c         1 MOL      0.767762
     44 O7          2.5100   -1.3260   -2.0920 o         1 MOL     -0.716824
     45 O8          1.6410   -0.4160   -3.8730 o         1 MOL     -0.716824
     46 H19         2.8770   -3.9960   -1.4590 hn        1 MOL      0.239722
     47 H20         3.5370   -4.5290   -4.2480 h1        1 MOL      0.096776
     48 H21         1.6630   -2.9580   -4.5250 hc        1 MOL      0.071565
     49 H22         3.1730   -2.1710   -5.1470 hc        1 MOL      0.071565
     50 N4          5.1220   -2.6790   -2.0290 n         1 MOL     -0.050122
     51 C17         6.4420   -2.3710   -1.5260 c3        1 MOL     -0.402332
     52 C18         7.0210   -0.9920   -1.8450 c         1 MOL      0.629412
     53 O9          8.2150   -0.7300   -1.6980 o         1 MOL     -0.614505
     54 H23         4.3080   -2.7070   -1.4220 hn        1 MOL      0.153810
     55 H24         7.1360   -3.1360   -1.8870 h1        1 MOL      0.147248
     56 H25         6.4060   -2.4370   -0.4460 h1        1 MOL      0.147248
     57 N5          6.1070   -0.1410   -2.3480 n         1 MOL     -0.356494
     58 C19         6.3460    1.2730   -2.6550 c3        1 MOL     -0.020230
     59 C20         6.8820    2.1610   -1.6090 c         1 MOL      0.476509
     60 O10         7.1550    3.3420   -1.8630 o         1 MOL     -0.561269
     61 C21         5.0370    1.8660   -3.1990 c3        1 MOL     -0.286496
     62 C22         3.9410    2.0330   -2.2080 c         1 MOL      0.792252
     63 O11         4.0540    1.4580   -1.1140 o         1 MOL     -0.708981
     64 O12         2.8530    2.6510   -2.5410 o         1 MOL     -0.708981
     65 H26         5.1530   -0.4470   -2.5030 hn        1 MOL      0.277499
     66 H27         7.0910    1.2530   -3.4440 h1        1 MOL      0.088122
     67 H28         4.6600    1.2180   -3.9910 hc        1 MOL      0.089956
     68 H29         5.2840    2.7910   -3.7040 hc        1 MOL      0.089956
     69 N6          6.9910    1.6740   -0.3720 n         1 MOL     -0.176812
     70 C23         7.5050    2.4570    0.7710 c3        1 MOL     -0.340838
     71 C24         6.5010    3.4700    1.3090 c         1 MOL      0.557053
     72 O13         6.7990    4.4280    2.0070 o         1 MOL     -0.599423
     73 H30         6.4320    0.8640   -0.1640 hn        1 MOL      0.225862
     74 H31         8.4070    2.9850    0.4570 h1        1 MOL      0.140856
     75 H32         7.7240    1.7380    1.5720 h1        1 MOL      0.140856
     76 N7          5.2290    3.2360    1.0300 n         1 MOL     -0.156402
     77 C25         4.0110    3.9040    1.6070 c3        1 MOL     -0.072317
     78 C26         2.7700    2.9710    1.9420 c         1 MOL      0.454363
     79 O14         2.8880    1.7350    1.6930 o         1 MOL     -0.582422
     80 C27         3.5680    5.0460    0.7290 c3        1 MOL      0.024372
     81 C28         4.7050    6.1450    0.6060 c3        1 MOL     -0.319594
     82 C29         4.2180    7.3730   -0.2110 c         1 MOL      0.680820
     83 N8          5.0970    8.2140   -0.7170 n         1 MOL     -0.798376
     84 O15         3.0470    7.6620   -0.2290 o         1 MOL     -0.562096
     85 H33         5.0320    2.4290    0.4520 hn        1 MOL      0.109820
     86 H34         4.3150    4.3790    2.5370 h1        1 MOL      0.041357
     87 H35         2.5780    5.4350    0.9700 hc        1 MOL      0.044409
     88 H36         3.3970    4.5540   -0.2200 hc        1 MOL      0.044409
     89 H37         5.5080    5.7360   -0.0070 hc        1 MOL      0.120870
     90 H38         5.1200    6.4400    1.5760 hc        1 MOL      0.120870
     91 H39         6.0560    7.9180   -0.7810 hn        1 MOL      0.349235
     92 H40         4.7330    8.9410   -1.3190 hn        1 MOL      0.349235
     93 N9          1.7000    3.4680    2.5860 n         1 MOL     -0.259910
     94 C30         0.4450    2.7400    2.8030 c3        1 MOL      0.255880
     95 C31        -0.6280    3.1750    1.8470 c         1 MOL      0.264315
     96 O16        -0.7880    4.4040    1.6170 o         1 MOL     -0.581266
     97 C32         0.0100    2.9970    4.3100 c3        1 MOL      0.096204
     98 C33        -1.4010    2.4180    4.6050 c3        1 MOL     -0.190587
     99 C34         1.0180    2.4690    5.3160 c3        1 MOL     -0.190587
    100 H41         1.7330    4.4610    2.7870 hn        1 MOL      0.209878
    101 H42         0.7270    1.6960    2.6550 h1        1 MOL      0.031091
    102 H43        -0.0510    4.0840    4.3990 hc        1 MOL      0.000027
    103 H44        -2.1000    2.9400    3.9560 hc        1 MOL      0.037813
    104 H45        -1.4650    1.3450    4.4050 hc        1 MOL      0.037813
    105 H46        -1.8270    2.5750    5.5940 hc        1 MOL      0.037813
    106 H47         0.7700    2.7970    6.3180 hc        1 MOL      0.037813
    107 H48         1.0430    1.3810    5.2890 hc        1 MOL      0.037813
    108 H49         2.0080    2.8540    5.0760 hc        1 MOL      0.037813
    109 N10        -1.3150    2.2790    1.2030 n         1 MOL     -0.088036
    110 C35        -2.5230    2.5600    0.3110 c3        1 MOL      0.265326
    111 C36        -3.8240    2.2010    0.9680 c         1 MOL      0.101528
    112 O17        -3.9140    1.5350    1.9950 o         1 MOL     -0.345123
    113 C37        -2.2530    1.7390   -0.9300 c3        1 MOL     -0.496273
    114 C38        -3.2300    1.9270   -2.0330 c         1 MOL      0.884237
    115 N11        -3.4210    3.0940   -2.5330 n         1 MOL     -0.798590
    116 O18        -3.9300    1.0390   -2.4270 o         1 MOL     -0.630620
    117 H50        -1.0350    1.3210    1.3180 hn        1 MOL      0.157348
    118 H51        -2.5480    3.6290    0.1010 h1        1 MOL      0.035128
    119 H52        -2.1510    0.6660   -0.7910 hc        1 MOL      0.152510
    120 H53        -1.3350    2.0830   -1.4060 hc        1 MOL      0.152510
    121 H54        -2.7770    3.8400   -2.2960 hn        1 MOL      0.333760
    122 H55        -3.9100    3.2070   -3.4160 hn        1 MOL      0.333760
    123 N12        -4.9100    2.8110    0.5240 n         1 MOL     -0.046742
    124 C39        -6.2080    2.4910    0.9720 c3        1 MOL      0.058110
    125 C40        -6.6480    1.0620    0.8030 c         1 MOL      0.505443
    126 O19        -7.4750    0.5570    1.5910 o         1 MOL     -0.622651
    127 C41        -7.1650    3.4460    0.2370 c3        1 MOL     -0.205506
    128 C42        -7.2540    3.2510   -1.2440 ca        1 MOL     -0.074309
    129 C43        -6.5600    4.1800   -2.1170 ca        1 MOL      0.059222
    130 C44        -8.1850    2.3710   -1.8330 ca        1 MOL      0.059222
    131 C45        -6.8800    4.3100   -3.4920 ca        1 MOL     -0.514046
    132 C46        -8.3800    2.3570   -3.2190 ca        1 MOL     -0.514046
    133 C47        -7.7760    3.3300   -4.0610 ca        1 MOL      0.549341
    134 O20        -8.1110    3.4280   -5.3400 oh        1 MOL     -0.475654
    135 H56        -4.8000    3.3760   -0.3120 hn        1 MOL      0.063598
    136 H57        -6.2650    2.6850    2.0340 h1        1 MOL      0.046126
    137 H58        -6.8950    4.4750    0.4590 hc        1 MOL      0.062351
    138 H59        -8.1740    3.2950    0.6180 hc        1 MOL      0.062351
    139 H60        -5.9480    4.9540   -1.6760 ha        1 MOL      0.093806
    140 H61        -8.7740    1.7580   -1.1690 ha        1 MOL      0.093806
    141 H62        -6.4500    5.0940   -4.1070 ha        1 MOL      0.174746
    142 H63        -9.0730    1.7320   -3.7520 ha        1 MOL      0.174746
    143 H64        -7.8160    4.2420   -5.7570 ho        1 MOL      0.327507
    144 N13        -6.0840    0.3240   -0.1400 n         1 MOL      0.158667
    145 C48        -6.3370   -1.1570   -0.1960 c3        1 MOL     -0.405293
    146 C49        -5.5650   -2.0240    0.8540 c         1 MOL      0.658205
    147 O21        -5.8130   -3.2140    0.8850 o         1 MOL     -0.533500
    148 C50        -5.9940   -1.5870   -1.6820 c3        1 MOL      0.074554
    149 C51        -7.0120   -1.0690   -2.7060 c3        1 MOL      0.005477
    150 C52        -8.4460   -1.5040   -2.3730 c         1 MOL      0.458190
    151 O22        -8.5470   -2.6540   -1.9350 o         1 MOL     -0.640201
    152 O23        -9.3630   -0.6090   -2.2830 o         1 MOL     -0.640201
    153 H65        -5.4440    0.7570   -0.7870 hn        1 MOL      0.070985
    154 H66        -7.3810   -1.3650    0.0360 h1        1 MOL      0.227848
    155 H67        -6.0130   -2.6710   -1.6700 hc        1 MOL      0.000142
    156 H68        -5.0470   -1.1520   -2.0030 hc        1 MOL      0.000142
    157 H69        -6.7800   -1.4110   -3.7070 hc        1 MOL      0.004420
    158 H70        -7.0080    0.0210   -2.8000 hc        1 MOL      0.004420
    159 N14        -4.6720   -1.4050    1.6050 n         1 MOL     -0.541637
    160 C53        -3.8210   -2.0440    2.6220 c3        1 MOL      0.079092
    161 C54        -4.0930   -1.6120    4.0370 c         1 MOL      0.465900
    162 O24        -3.9360   -2.3330    4.9900 o         1 MOL     -0.563724
    163 C55        -2.3260   -1.7510    2.3300 c3        1 MOL      0.125711
    164 C56        -1.8470   -2.1080    0.9250 c3        1 MOL      0.018432
    165 C57        -0.4120   -1.5050    0.6780 c         1 MOL      0.604102
    166 O25         0.4580   -2.0630   -0.0360 o         1 MOL     -0.686550
    167 O26        -0.0670   -0.3670    1.1000 o         1 MOL     -0.686550
    168 H71        -4.4850   -0.4230    1.4760 hn        1 MOL      0.219527
    169 H72        -3.9740   -3.1260    2.6290 h1        1 MOL      0.038276
    170 H73        -1.6980   -2.3480    2.9880 hc        1 MOL     -0.039800
    171 H74        -2.2730   -0.6980    2.5760 hc        1 MOL     -0.039800
    172 H75        -2.4570   -1.5540    0.2080 hc        1 MOL      0.023206
    173 H76        -1.7970   -3.1880    0.7230 hc        1 MOL      0.023206
    174 N15        -4.5380   -0.3460    4.2360 n         1 MOL     -0.158030
    175 C58        -4.8370    0.2420    5.5590 c3        1 MOL     -0.084845
    176 H77        -5.8800    0.5570    5.5890 h1        1 MOL      0.052021
    177 H78        -4.6610   -0.5010    6.3360 h1        1 MOL      0.052021
    178 H79        -4.1930    1.1050    5.7280 h1        1 MOL      0.052021
    179 H80        -4.6410    0.2620    3.4390 hn        1 MOL      0.115762
    180 Ca1         2.5540   -0.3720    0.2110 Ca        1 MOL      1.740030
    181 O27         2.4420   -0.8990    2.7400 oh        1 MOL     -0.872820
    182 O28         1.1370    1.5540   -1.0220 oh        1 MOL     -0.872820
    183 H81         1.9540   -1.5560    3.2330 ho        1 MOL      0.420128
    184 H82         1.7930    2.1720   -1.3410 ho        1 MOL      0.420128
    185 H83         3.0050   -0.4850    3.3890 ho        1 MOL      0.420128
    186 H84         0.6670    1.2780   -1.8100 ho        1 MOL      0.420128
    187 O29         5.2040   -0.4180    0.8430 oh        1 MOL     -0.872820
    188 H85         5.4040   -1.3540    0.9550 ho        1 MOL      0.420128
    189 H86         5.4610   -0.0190    1.6700 ho        1 MOL      0.420128
@<TRIPOS>BOND
     1    1    2 1   
     2    1    4 1   
     3    1    5 1   
     4    1    6 1   
     5    2    3 2   
     6    2    7 1   
     7    7    8 1   
     8    7   15 1   
     9    8    9 1   
    10    8   11 1   
    11    8   16 1   
    12    9   10 2   
    13    9   19 1   
    14   11   12 1   
    15   11   17 1   
    16   11   18 1   
    17   12   13 1   
    18   12   14 1   
    19   19   20 1   
    20   19   27 1   
    21   20   21 1   
    22   20   23 1   
    23   20   28 1   
    24   21   22 2   
    25   21   38 1   
    26   23   24 1   
    27   23   25 1   
    28   23   29 1   
    29   24   26 1   
    30   24   30 1   
    31   24   31 1   
    32   25   32 1   
    33   25   33 1   
    34   25   34 1   
    35   26   35 1   
    36   26   36 1   
    37   26   37 1   
    38   38   39 1   
    39   38   46 1   
    40   39   40 1   
    41   39   42 1   
    42   39   47 1   
    43   40   41 2   
    44   40   50 1   
    45   42   43 1   
    46   42   48 1   
    47   42   49 1   
    48   43   44 1   
    49   43   45 1   
    50   50   51 1   
    51   50   54 1   
    52   51   52 1   
    53   51   55 1   
    54   51   56 1   
    55   52   53 2   
    56   52   57 1   
    57   57   58 1   
    58   57   65 1   
    59   58   59 1   
    60   58   61 1   
    61   58   66 1   
    62   59   60 2   
    63   59   69 1   
    64   61   62 1   
    65   61   67 1   
    66   61   68 1   
    67   62   63 1   
    68   62   64 1   
    69   69   70 1   
    70   69   73 1   
    71   70   71 1   
    72   70   74 1   
    73   70   75 1   
    74   71   72 2   
    75   71   76 1   
    76   76   77 1   
    77   76   85 1   
    78   77   78 1   
    79   77   80 1   
    80   77   86 1   
    81   78   79 2   
    82   78   93 1   
    83   80   81 1   
    84   80   87 1   
    85   80   88 1   
    86   81   82 1   
    87   81   89 1   
    88   81   90 1   
    89   82   83 1   
    90   82   84 2   
    91   83   91 1   
    92   83   92 1   
    93   93   94 1   
    94   93  100 1   
    95   94   95 1   
    96   94   97 1   
    97   94  101 1   
    98   95   96 2   
    99   95  109 1   
   100   97   98 1   
   101   97   99 1   
   102   97  102 1   
   103   98  103 1   
   104   98  104 1   
   105   98  105 1   
   106   99  106 1   
   107   99  107 1   
   108   99  108 1   
   109  109  110 1   
   110  109  117 1   
   111  110  111 1   
   112  110  113 1   
   113  110  118 1   
   114  111  112 2   
   115  111  123 1   
   116  113  114 1   
   117  113  119 1   
   118  113  120 1   
   119  114  115 1   
   120  114  116 2   
   121  115  121 1   
   122  115  122 1   
   123  123  124 1   
   124  123  135 1   
   125  124  125 1   
   126  124  127 1   
   127  124  136 1   
   128  125  126 2   
   129  125  144 1   
   130  127  128 1   
   131  127  137 1   
   132  127  138 1   
   133  128  129 ar  
   134  128  130 ar  
   135  129  131 ar  
   136  129  139 1   
   137  130  132 ar  
   138  130  140 1   
   139  131  133 ar  
   140  131  141 1   
   141  132  133 ar  
   142  132  142 1   
   143  133  134 1   
   144  134  143 1   
   145  144  145 1   
   146  144  153 1   
   147  145  146 1   
   148  145  148 1   
   149  145  154 1   
   150  146  147 2   
   151  146  159 1   
   152  148  149 1   
   153  148  155 1   
   154  148  156 1   
   155  149  150 1   
   156  149  157 1   
   157  149  158 1   
   158  150  151 1   
   159  150  152 1   
   160  159  160 1   
   161  159  168 1   
   162  160  161 1   
   163  160  163 1   
   164  160  169 1   
   165  161  162 2   
   166  161  174 1   
   167  163  164 1   
   168  163  170 1   
   169  163  171 1   
   170  164  165 1   
   171  164  172 1   
   172  164  173 1   
   173  165  166 1   
   174  165  167 1   
   175  174  175 1   
   176  174  179 1   
   177  175  176 1   
   178  175  177 1   
   179  175  178 1   
   180  181  183 1   
   181  181  185 1   
   182  182  184 1   
   183  182  186 1   
   184  187  188 1   
   185  187  189 1   
@<TRIPOS>SUBSTRUCTURE
     1 MOL         1 TEMP              0 ****  ****    0 ROOT
