@<TRIPOS>MOLECULE
MOL
  179   176     1     0     0
SMALL
resp


@<TRIPOS>ATOM
      1 C1          2.4230    3.4590    4.2220 c3        1 MOL     -0.351528
      2 C2          1.5470    3.1020    3.0320 c         1 MOL      0.571951
      3 O1          2.0460    3.1860    1.8940 o         1 MOL     -0.561791
      4 H1          2.6700    4.5190    4.1860 hc        1 MOL      0.096468
      5 H2          1.8870    3.2430    5.1460 hc        1 MOL      0.096468
      6 H3          3.3400    2.8710    4.1870 hc        1 MOL      0.096468
      7 N1          0.2680    2.7940    3.1860 n         1 MOL     -0.485974
      8 C3         -0.7210    2.6980    2.1080 c3        1 MOL      0.180220
      9 C4         -1.2130    4.0450    1.5290 c         1 MOL      0.444485
     10 O2         -2.4560    4.3340    1.6180 o         1 MOL     -0.439092
     11 C5         -1.7410    1.6990    2.5570 c3        1 MOL     -0.245015
     12 C6         -2.7290    1.3060    1.4490 c         1 MOL      0.580377
     13 O3         -3.9760    1.0870    1.7470 o         1 MOL     -0.607622
     14 O4         -2.4020    1.4590    0.2670 o         1 MOL     -0.607622
     15 H4         -0.2060    2.6070    4.0640 hn        1 MOL      0.300061
     16 H5         -0.2800    2.2030    1.2480 h1        1 MOL      0.097831
     17 H6         -2.2940    2.0830    3.4110 hc        1 MOL      0.063354
     18 H7         -1.1890    0.7980    2.8300 hc        1 MOL      0.063354
     19 N2         -0.2280    4.7460    0.9360 n         1 MOL     -0.464686
     20 C7         -0.4080    6.0560    0.3060 c3        1 MOL      0.013002
     21 C8         -1.5090    6.1700   -0.7870 c         1 MOL      0.386025
     22 O5         -2.1420    7.1760   -0.9640 o         1 MOL     -0.498122
     23 C9          0.9220    6.5610   -0.2780 c3        1 MOL     -0.183703
     24 C10         2.0090    6.7330    0.8680 c3        1 MOL      0.288477
     25 C11         3.1960    7.6030    0.4990 c3        1 MOL     -0.202695
     26 C12         4.1380    7.9540    1.6250 c3        1 MOL      0.158698
     27 N3          5.2110    6.9890    1.8330 n4        1 MOL     -0.415911
     28 H8          0.6550    4.2660    0.8790 hn        1 MOL      0.297085
     29 H9         -0.6620    6.7790    1.0760 h1        1 MOL      0.098761
     30 H10         0.8050    7.5440   -0.7240 hc        1 MOL      0.072363
     31 H11         1.3570    5.9410   -1.0720 hc        1 MOL      0.072363
     32 H12         2.4910    5.7750    1.0780 hc        1 MOL     -0.049886
     33 H13         1.5640    7.0780    1.7920 hc        1 MOL     -0.049886
     34 H14         2.7410    8.5150    0.1270 hc        1 MOL      0.062142
     35 H15         3.7420    7.1020   -0.2940 hc        1 MOL      0.062142
     36 H16         3.6950    8.1550    2.6010 hx        1 MOL      0.050997
     37 H17         4.6400    8.8920    1.4040 hx        1 MOL      0.050997
     38 H18         4.8320    6.0650    1.9930 hn        1 MOL      0.346534
     39 H19         5.8050    6.9130    1.0180 hn        1 MOL      0.346534
     40 H20         5.7710    7.3490    2.6010 hn        1 MOL      0.346534
     41 N4         -1.7330    5.0140   -1.4950 n         1 MOL     -0.217807
     42 C13        -2.7240    4.8890   -2.6220 c3        1 MOL      0.032681
     43 C14        -4.1070    4.5450   -2.0910 c         1 MOL      0.457341
     44 O6         -5.1020    4.7580   -2.8010 o         1 MOL     -0.512601
     45 C15        -2.1890    3.8690   -3.6010 c3        1 MOL     -0.324502
     46 C16        -1.7460    2.5180   -2.9200 c         1 MOL      0.789975
     47 O7         -0.6560    2.3700   -2.3980 o         1 MOL     -0.749443
     48 O8         -2.4820    1.5330   -3.0440 o         1 MOL     -0.749443
     49 H21        -1.0550    4.2710   -1.3590 hn        1 MOL      0.211436
     50 H22        -2.8990    5.8470   -3.1180 h1        1 MOL      0.091212
     51 H23        -1.2670    4.2640   -4.0450 hc        1 MOL      0.086896
     52 H24        -2.9650    3.5860   -4.3110 hc        1 MOL      0.086896
     53 N5         -4.1360    4.0890   -0.7940 n         1 MOL     -0.114788
     54 C17        -5.4180    3.8300   -0.0610 c3        1 MOL     -0.137761
     55 C18        -6.2340    2.6880   -0.5740 c         1 MOL      0.502851
     56 O9         -7.3840    2.9270   -0.9270 o         1 MOL     -0.559157
     57 H25        -3.2420    3.7750   -0.4320 hn        1 MOL      0.048756
     58 H26        -5.9920    4.7470   -0.1210 h1        1 MOL      0.099245
     59 H27        -5.1990    3.7590    1.0030 h1        1 MOL      0.099245
     60 N6         -5.6620    1.4920   -0.7690 n         1 MOL     -0.137391
     61 C19        -6.3440    0.2660   -1.1950 c3        1 MOL      0.006465
     62 C20        -6.4740   -0.7850   -0.0370 c         1 MOL      0.434027
     63 O10        -7.0430   -1.8560   -0.2050 o         1 MOL     -0.492789
     64 C21        -5.7650   -0.2770   -2.4650 c3        1 MOL     -0.112061
     65 C22        -4.4440   -1.0880   -2.3870 c         1 MOL      0.243783
     66 N7         -4.1650   -2.0230   -3.2450 n         1 MOL     -0.504006
     67 O11        -3.7750   -0.9700   -1.3800 o         1 MOL     -0.271015
     68 H28        -4.7500    1.4390   -0.3230 hn        1 MOL      0.010018
     69 H29        -7.4180    0.3690   -1.3620 h1        1 MOL      0.095536
     70 H30        -5.5520    0.5070   -3.2040 hc        1 MOL      0.075840
     71 H31        -6.5490   -0.8960   -2.9100 hc        1 MOL      0.075840
     72 H32        -4.7630   -2.2070   -4.0430 hn        1 MOL      0.295889
     73 H33        -3.3030   -2.5410   -3.2630 hn        1 MOL      0.295889
     74 N8         -6.0660   -0.4270    1.1790 n         1 MOL     -0.361257
     75 C23        -6.0700   -1.1950    2.3550 c3        1 MOL     -0.047182
     76 C24        -4.8880   -2.1650    2.5890 c         1 MOL      0.424268
     77 O12        -4.7970   -2.7910    3.5890 o         1 MOL     -0.568359
     78 H34        -5.5310    0.4290    1.2280 hn        1 MOL      0.267416
     79 H35        -7.0210   -1.7190    2.4660 h1        1 MOL      0.089153
     80 H36        -6.0980   -0.5850    3.2610 h1        1 MOL      0.089153
     81 N9         -3.9840   -2.2420    1.6440 n         1 MOL     -0.128894
     82 C25        -2.7910   -3.1640    1.5030 c3        1 MOL      0.090778
     83 C26        -1.4800   -2.3460    1.5150 c         1 MOL      0.362132
     84 O13        -1.3260   -1.4520    0.6790 o         1 MOL     -0.571642
     85 C27        -2.9600   -4.1530    0.2930 c3        1 MOL     -0.172632
     86 C28        -4.1610   -5.1010    0.2730 ca        1 MOL      0.366488
     87 C29        -5.2040   -4.8340   -0.6320 ca        1 MOL     -0.444152
     88 C30        -4.1580   -6.3540    0.9800 ca        1 MOL     -0.444152
     89 C31        -6.2970   -5.7200   -0.7490 ca        1 MOL     -0.021015
     90 C32        -5.3230   -7.1290    0.8900 ca        1 MOL     -0.021015
     91 C33        -6.3440   -6.8210    0.0500 ca        1 MOL      0.153137
     92 O14        -7.4770   -7.6070    0.0730 oh        1 MOL     -0.455728
     93 H37        -4.2080   -1.6110    0.8820 hn        1 MOL      0.146179
     94 H38        -2.8290   -3.7860    2.3980 h1        1 MOL      0.052976
     95 H39        -2.0660   -4.7750    0.3100 hc        1 MOL      0.030587
     96 H40        -2.8870   -3.5470   -0.6180 hc        1 MOL      0.030587
     97 H41        -5.3240   -3.9460   -1.2200 ha        1 MOL      0.190702
     98 H42        -3.4060   -6.7710    1.6360 ha        1 MOL      0.190702
     99 H43        -7.0050   -5.5310   -1.5420 ha        1 MOL      0.103786
    100 H44        -5.3180   -8.0770    1.4010 ha        1 MOL      0.103786
    101 H45        -7.3560   -8.2500    0.7780 ho        1 MOL      0.334944
    102 N10        -0.4840   -2.8800    2.2350 n         1 MOL     -0.271166
    103 C34         0.9610   -2.5340    2.0700 c3        1 MOL      0.120239
    104 C35         1.7180   -3.6630    1.3720 c         1 MOL      0.406367
    105 O15         1.7330   -4.7860    1.8220 o         1 MOL     -0.540042
    106 C36         1.7010   -2.2680    3.4320 c3        1 MOL      0.223873
    107 C37         0.9730   -1.4180    4.4830 c3        1 MOL      0.060374
    108 C38         3.2020   -1.8420    3.1530 c3        1 MOL     -0.195506
    109 C39         1.5620   -1.3200    5.9310 c3        1 MOL     -0.153688
    110 H46        -0.6860   -3.5810    2.9330 hn        1 MOL      0.236697
    111 H47         1.0090   -1.6230    1.4650 h1        1 MOL      0.000565
    112 H48         1.7680   -3.2590    3.8760 hc        1 MOL     -0.045327
    113 H49        -0.0520   -1.7940    4.5240 hc        1 MOL     -0.029480
    114 H50         0.9060   -0.4130    4.0630 hc        1 MOL     -0.029480
    115 H51         3.3240   -0.9200    2.5900 hc        1 MOL      0.027778
    116 H52         3.7400   -1.8240    4.0990 hc        1 MOL      0.027778
    117 H53         3.6700   -2.5610    2.4830 hc        1 MOL      0.027778
    118 H54         1.2430   -0.4650    6.5420 hc        1 MOL      0.040536
    119 H55         1.3690   -2.2160    6.5140 hc        1 MOL      0.040536
    120 H56         2.6330   -1.1830    5.8490 hc        1 MOL      0.040536
    121 N11         2.2490   -3.3970    0.2000 n         1 MOL     -0.112226
    122 C40         3.2910   -4.0990   -0.4690 c3        1 MOL     -0.087916
    123 C41         4.7460   -3.7660   -0.0420 c         1 MOL      0.539381
    124 O16         4.9800   -2.6120    0.4200 o         1 MOL     -0.410339
    125 C42         3.1530   -3.7970   -1.9910 c3        1 MOL     -0.033324
    126 O17         3.3170   -2.4090   -2.2070 oh        1 MOL     -0.499846
    127 H57         2.0130   -2.4510   -0.0650 hn        1 MOL      0.038573
    128 H58         3.2200   -5.1820   -0.3700 h1        1 MOL      0.066656
    129 H59         2.1670   -4.0730   -2.3630 h1        1 MOL      0.070278
    130 H60         3.9390   -4.2640   -2.5800 h1        1 MOL      0.070278
    131 H61         2.5490   -1.9820   -1.8080 ho        1 MOL      0.346946
    132 N12         5.6520   -4.6490   -0.4540 n         1 MOL     -0.500614
    133 C43         7.1130   -4.4380   -0.3750 c3        1 MOL      0.144855
    134 C44         7.6240   -3.1270   -0.9960 c         1 MOL      0.551001
    135 O18         8.4770   -2.4710   -0.3440 o         1 MOL     -0.533187
    136 C45         7.7480   -5.6770   -1.0130 c3        1 MOL     -0.302282
    137 H62         5.2910   -5.4770   -0.9090 hn        1 MOL      0.305443
    138 H63         7.3830   -4.2810    0.6680 h1        1 MOL      0.064446
    139 H64         7.3860   -5.8940   -2.0180 hc        1 MOL      0.094379
    140 H65         8.8310   -5.5070   -1.0810 hc        1 MOL      0.094379
    141 H66         7.6210   -6.5520   -0.3700 hc        1 MOL      0.094379
    142 N13         7.1900   -2.8320   -2.1870 n         1 MOL     -0.594666
    143 C46         7.5080   -1.6170   -3.0280 c3        1 MOL      0.313076
    144 C47         7.1030   -0.3180   -2.2980 c         1 MOL      0.310079
    145 O19         7.9170    0.6050   -2.1560 o         1 MOL     -0.522007
    146 C48         6.9250   -1.9790   -4.4100 c3        1 MOL     -0.310727
    147 H67         6.4720   -3.4300   -2.5900 hn        1 MOL      0.354936
    148 H68         8.5710   -1.4710   -3.2120 h1        1 MOL      0.053051
    149 H69         7.0740   -2.9890   -4.8110 hc        1 MOL      0.082035
    150 H70         5.8440   -1.9080   -4.3110 hc        1 MOL      0.082035
    151 H71         7.2780   -1.1940   -5.0790 hc        1 MOL      0.082035
    152 N14         5.9170   -0.2090   -1.7520 n         1 MOL     -0.030348
    153 C49         5.4430    0.9810   -1.0140 c3        1 MOL     -0.199498
    154 C50         6.0090    1.0270    0.4490 c         1 MOL      0.480525
    155 O20         6.1270    2.1120    1.0780 o         1 MOL     -0.582208
    156 C51         3.9010    1.0950   -1.0380 c3        1 MOL     -0.126063
    157 C52         3.2460    0.1540   -0.1130 c3        1 MOL     -0.059962
    158 C53         1.7830   -0.0520   -0.4990 c         1 MOL      0.774013
    159 O21         1.4320   -1.0230   -1.1820 o         1 MOL     -0.709077
    160 O22         0.9140    0.8220   -0.2720 o         1 MOL     -0.709077
    161 H72         5.1870   -0.8620   -1.9900 hn        1 MOL      0.070743
    162 H73         5.8420    1.7950   -1.6030 h1        1 MOL      0.130990
    163 H74         3.5340    1.0850   -2.0660 hc        1 MOL      0.076763
    164 H75         3.6110    2.0720   -0.6630 hc        1 MOL      0.076763
    165 H76         3.2920    0.3690    0.9580 hc        1 MOL      0.058649
    166 H77         3.6500   -0.8360   -0.3180 hc        1 MOL      0.058649
    167 N15         6.4030   -0.1340    1.0680 n         1 MOL     -0.035523
    168 C54         7.1030   -0.1660    2.3100 c3        1 MOL     -0.209160
    169 H78         7.3390    0.8530    2.6200 h1        1 MOL      0.082084
    170 H79         6.4780   -0.6400    3.0670 h1        1 MOL      0.082084
    171 H80         8.0270   -0.7330    2.1940 h1        1 MOL      0.082084
    172 H81         6.2410   -1.0520    0.6930 hn        1 MOL      0.111068
    173 Ca1        -1.1560   -0.0490   -1.4590 Ca        1 MOL      1.703313
    174 O23        -0.1480   -0.2810   -3.9820 oh        1 MOL     -0.830276
    175 H82         0.3830    0.4070   -4.3770 ho        1 MOL      0.416576
    176 H83        -0.5100   -0.7670   -4.7300 ho        1 MOL      0.416576
    177 O24        -1.5530   -2.8190   -2.6310 oh        1 MOL     -0.830276
    178 H84        -1.4600   -3.5550   -2.0180 ho        1 MOL      0.416576
    179 H85        -0.8560   -2.9520   -3.2670 ho        1 MOL      0.416576
@<TRIPOS>BOND
     1    1    2 1   
     2    1    4 1   
     3    1    5 1   
     4    1    6 1   
     5    2    3 2   
     6    2    7 1   
     7    7    8 1   
     8    7   15 1   
     9    8    9 1   
    10    8   11 1   
    11    8   16 1   
    12    9   10 2   
    13    9   19 1   
    14   11   12 1   
    15   11   17 1   
    16   11   18 1   
    17   12   13 1   
    18   12   14 1   
    19   19   20 1   
    20   19   28 1   
    21   20   21 1   
    22   20   23 1   
    23   20   29 1   
    24   21   22 2   
    25   21   41 1   
    26   23   24 1   
    27   23   30 1   
    28   23   31 1   
    29   24   25 1   
    30   24   32 1   
    31   24   33 1   
    32   25   26 1   
    33   25   34 1   
    34   25   35 1   
    35   26   27 1   
    36   26   36 1   
    37   26   37 1   
    38   27   38 1   
    39   27   39 1   
    40   27   40 1   
    41   41   42 1   
    42   41   49 1   
    43   42   43 1   
    44   42   45 1   
    45   42   50 1   
    46   43   44 2   
    47   43   53 1   
    48   45   46 1   
    49   45   51 1   
    50   45   52 1   
    51   46   47 1   
    52   46   48 1   
    53   53   54 1   
    54   53   57 1   
    55   54   55 1   
    56   54   58 1   
    57   54   59 1   
    58   55   56 2   
    59   55   60 1   
    60   60   61 1   
    61   60   68 1   
    62   61   62 1   
    63   61   64 1   
    64   61   69 1   
    65   62   63 2   
    66   62   74 1   
    67   64   65 1   
    68   64   70 1   
    69   64   71 1   
    70   65   66 1   
    71   65   67 2   
    72   66   72 1   
    73   66   73 1   
    74   74   75 1   
    75   74   78 1   
    76   75   76 1   
    77   75   79 1   
    78   75   80 1   
    79   76   77 2   
    80   76   81 1   
    81   81   82 1   
    82   81   93 1   
    83   82   83 1   
    84   82   85 1   
    85   82   94 1   
    86   83   84 2   
    87   83  102 1   
    88   85   86 1   
    89   85   95 1   
    90   85   96 1   
    91   86   87 ar  
    92   86   88 ar  
    93   87   89 ar  
    94   87   97 1   
    95   88   90 ar  
    96   88   98 1   
    97   89   91 ar  
    98   89   99 1   
    99   90   91 ar  
   100   90  100 1   
   101   91   92 1   
   102   92  101 1   
   103  102  103 1   
   104  102  110 1   
   105  103  104 1   
   106  103  106 1   
   107  103  111 1   
   108  104  105 2   
   109  104  121 1   
   110  106  107 1   
   111  106  108 1   
   112  106  112 1   
   113  107  109 1   
   114  107  113 1   
   115  107  114 1   
   116  108  115 1   
   117  108  116 1   
   118  108  117 1   
   119  109  118 1   
   120  109  119 1   
   121  109  120 1   
   122  121  122 1   
   123  121  127 1   
   124  122  123 1   
   125  122  125 1   
   126  122  128 1   
   127  123  124 2   
   128  123  132 1   
   129  125  126 1   
   130  125  129 1   
   131  125  130 1   
   132  126  131 1   
   133  132  133 1   
   134  132  137 1   
   135  133  134 1   
   136  133  136 1   
   137  133  138 1   
   138  134  135 2   
   139  134  142 1   
   140  136  139 1   
   141  136  140 1   
   142  136  141 1   
   143  142  143 1   
   144  142  147 1   
   145  143  144 1   
   146  143  146 1   
   147  143  148 1   
   148  144  145 2   
   149  144  152 1   
   150  146  149 1   
   151  146  150 1   
   152  146  151 1   
   153  152  153 1   
   154  152  161 1   
   155  153  154 1   
   156  153  156 1   
   157  153  162 1   
   158  154  155 2   
   159  154  167 1   
   160  156  157 1   
   161  156  163 1   
   162  156  164 1   
   163  157  158 1   
   164  157  165 1   
   165  157  166 1   
   166  158  159 1   
   167  158  160 1   
   168  167  168 1   
   169  167  172 1   
   170  168  169 1   
   171  168  170 1   
   172  168  171 1   
   173  174  175 1   
   174  174  176 1   
   175  177  178 1   
   176  177  179 1   
@<TRIPOS>SUBSTRUCTURE
     1 MOL         1 TEMP              0 ****  ****    0 ROOT
