@<TRIPOS>MOLECULE
MOL
  175   173     1     0     0
SMALL
resp


@<TRIPOS>ATOM
      1 C1          0.9890    4.1990    5.4600 c3        1 MOL     -0.402475
      2 C2          0.3180    4.1190    4.0600 c         1 MOL      0.693060
      3 O1          0.9910    4.3610    3.0180 o         1 MOL     -0.534311
      4 H1          1.8120    4.9130    5.4270 hc        1 MOL      0.100297
      5 H2          0.2550    4.5240    6.1970 hc        1 MOL      0.100297
      6 H3          1.3730    3.2170    5.7360 hc        1 MOL      0.100297
      7 N1         -1.0370    3.8850    4.0270 n         1 MOL     -0.680081
      8 C3         -1.7330    3.6090    2.7720 c3        1 MOL      0.338588
      9 C4         -1.7210    4.7730    1.7700 c         1 MOL      0.537272
     10 O2         -1.8060    5.9290    2.2090 o         1 MOL     -0.599962
     11 C5         -3.2000    3.2130    3.0410 c3        1 MOL     -0.429216
     12 C6         -3.9980    2.4630    1.9150 c         1 MOL      0.886889
     13 O3         -5.1480    2.1320    2.1880 o         1 MOL     -0.694589
     14 O4         -3.4550    2.2700    0.8210 o         1 MOL     -0.694589
     15 H4         -1.5130    3.8650    4.9170 hn        1 MOL      0.339562
     16 H5         -1.1300    2.7770    2.4050 h1        1 MOL      0.031732
     17 H6         -3.7870    4.0780    3.3430 hc        1 MOL      0.075429
     18 H7         -3.2150    2.5550    3.9010 hc        1 MOL      0.075429
     19 N2         -1.5800    4.4580    0.5570 n         1 MOL     -0.630494
     20 C7         -1.4510    5.3460   -0.6210 c3        1 MOL      0.436036
     21 C8         -2.4130    5.0390   -1.8720 c         1 MOL      0.336961
     22 O5         -2.3720    5.8150   -2.8460 o         1 MOL     -0.557649
     23 C9          0.0030    5.4650   -1.0200 c3        1 MOL     -0.262036
     24 H8         -1.4490    3.4660    0.3790 hn        1 MOL      0.518586
     25 H9         -1.7350    6.3650   -0.3310 h1        1 MOL     -0.018817
     26 H10         0.5040    6.0210   -0.2270 hc        1 MOL      0.060478
     27 H11         0.3380    4.4460   -1.1540 hc        1 MOL      0.060478
     28 H12         0.1060    6.1470   -1.8710 hc        1 MOL      0.060478
     29 N3         -3.2260    3.9790   -1.8410 n         1 MOL     -0.250643
     30 C10        -4.2550    3.7220   -2.9840 c3        1 MOL      0.117115
     31 C11        -5.5630    3.1150   -2.5890 c         1 MOL      0.405760
     32 O6         -6.5560    3.2140   -3.3620 o         1 MOL     -0.553865
     33 C12        -3.6180    2.7080   -3.9800 c3        1 MOL     -0.377852
     34 C13        -3.0420    1.4200   -3.3070 c         1 MOL      0.835228
     35 O7         -2.1770    0.7650   -3.8980 o         1 MOL     -0.703487
     36 O8         -3.3910    0.9910   -2.1730 o         1 MOL     -0.703487
     37 H13        -3.1820    3.4890   -0.9550 hn        1 MOL      0.066592
     38 H14        -4.4870    4.6370   -3.5250 h1        1 MOL      0.093845
     39 H15        -2.7710    3.3120   -4.3030 hc        1 MOL      0.099099
     40 H16        -4.3330    2.4850   -4.7670 hc        1 MOL      0.099099
     41 N4         -5.7290    2.6370   -1.3380 n         1 MOL     -0.264894
     42 C14        -6.9720    1.9310   -0.8770 c3        1 MOL     -0.200914
     43 C15        -7.0480    0.4420   -1.1790 c         1 MOL      0.618114
     44 O9         -8.0580   -0.1390   -0.7640 o         1 MOL     -0.641325
     45 H17        -4.9290    2.4680   -0.7510 hn        1 MOL      0.169268
     46 H18        -7.9020    2.2920   -1.3260 h1        1 MOL      0.121268
     47 H19        -7.0670    1.9810    0.2070 h1        1 MOL      0.121268
     48 N5         -6.0840   -0.2450   -1.8210 n         1 MOL     -0.376012
     49 C16        -6.1670   -1.5960   -2.4070 c3        1 MOL      0.007148
     50 C17        -6.4190   -2.8130   -1.4190 c         1 MOL      0.406226
     51 O10        -6.6400   -3.9020   -1.8660 o         1 MOL     -0.532592
     52 C18        -4.9460   -1.8280   -3.3130 c3        1 MOL     -0.143049
     53 C19        -3.7220   -2.1110   -2.5610 c         1 MOL      0.650779
     54 N6         -2.6910   -2.6750   -3.2160 n         1 MOL     -0.713753
     55 O11        -3.6120   -1.8300   -1.3910 o         1 MOL     -0.636265
     56 H20        -5.2510    0.2910   -2.0380 hn        1 MOL      0.243102
     57 H21        -7.0420   -1.6190   -3.0650 h1        1 MOL      0.082365
     58 H22        -4.6530   -0.9800   -3.9370 hc        1 MOL      0.054153
     59 H23        -5.1950   -2.6260   -4.0230 hc        1 MOL      0.054153
     60 H24        -2.7830   -2.7240   -4.2220 hn        1 MOL      0.350388
     61 H25        -1.8390   -2.7280   -2.6890 hn        1 MOL      0.350388
     62 N7         -6.3630   -2.5710   -0.1250 n         1 MOL     -0.007856
     63 C20        -6.7200   -3.5260    0.9020 c3        1 MOL     -0.335812
     64 C21        -5.5650   -4.2970    1.4660 c         1 MOL      0.594249
     65 O12        -5.7590   -5.1220    2.4240 o         1 MOL     -0.606459
     66 H26        -6.3100   -1.6160    0.1820 hn        1 MOL      0.196475
     67 H27        -7.2840   -4.3310    0.4270 h1        1 MOL      0.130957
     68 H28        -7.2750   -3.1680    1.7670 h1        1 MOL      0.130957
     69 N8         -4.2820   -3.9560    1.1370 n         1 MOL     -0.252261
     70 C22        -2.9870   -4.5330    1.5870 c3        1 MOL     -0.315039
     71 C23        -1.8360   -3.4600    1.6270 c         1 MOL      0.700323
     72 O13        -2.0470   -2.3360    1.1440 o         1 MOL     -0.637954
     73 C24        -2.5350   -5.4950    0.4960 c3        1 MOL      0.568112
     74 C25        -3.1990   -6.8000    0.5290 c3        1 MOL     -0.287170
     75 O14        -2.7780   -5.1000   -0.7970 oh        1 MOL     -0.622954
     76 H29        -4.2100   -3.2380    0.4330 hn        1 MOL      0.212648
     77 H30        -3.0340   -5.0380    2.5570 h1        1 MOL      0.138054
     78 H31        -1.4630   -5.6940    0.5420 h1        1 MOL     -0.047482
     79 H32        -2.5190   -4.1820   -0.8800 ho        1 MOL      0.355833
     80 H33        -4.2330   -6.6970    0.8580 hc        1 MOL      0.057794
     81 H34        -3.2280   -7.3150   -0.4310 hc        1 MOL      0.057794
     82 H35        -2.7010   -7.4720    1.2430 hc        1 MOL      0.057794
     83 N9         -0.6910   -3.7610    2.3390 n         1 MOL     -0.608070
     84 C26         0.5010   -2.9090    2.1960 c3        1 MOL      0.094779
     85 C27         1.2850   -3.2600    0.9520 c         1 MOL      0.441323
     86 O15         1.3940   -4.4630    0.5220 o         1 MOL     -0.568002
     87 C28         1.3120   -2.9570    3.4840 c3        1 MOL      0.084290
     88 C29         0.7990   -1.9300    4.4550 c3        1 MOL      0.049450
     89 C30         2.7970   -2.7420    3.2920 c3        1 MOL     -0.270667
     90 C31         1.3960   -2.1160    5.8510 c3        1 MOL     -0.097968
     91 H36        -0.6310   -4.6260    2.8550 hn        1 MOL      0.300718
     92 H37         0.1850   -1.8900    1.9780 h1        1 MOL      0.105336
     93 H38         1.1520   -3.9260    3.9670 hc        1 MOL      0.020836
     94 H39        -0.2750   -2.0580    4.5440 hc        1 MOL     -0.010784
     95 H40         1.0390   -0.9490    4.0490 hc        1 MOL     -0.010784
     96 H41         3.2310   -3.5390    2.6840 hc        1 MOL      0.053980
     97 H42         2.9140   -1.7500    2.8500 hc        1 MOL      0.053980
     98 H43         3.2810   -2.7600    4.2680 hc        1 MOL      0.053980
     99 H44         1.2330   -3.1260    6.2380 hc        1 MOL      0.018723
    100 H45         2.4510   -1.8460    5.7840 hc        1 MOL      0.018723
    101 H46         0.9620   -1.4450    6.5900 hc        1 MOL      0.018723
    102 N10         1.7660   -2.2330    0.2340 n         1 MOL     -0.259206
    103 C32         2.5920   -2.2350   -0.9740 c3        1 MOL     -0.026355
    104 C33         4.0030   -1.7020   -0.7340 c         1 MOL      0.573485
    105 O16         4.3040   -1.2610    0.3580 o         1 MOL     -0.435023
    106 C34         1.8030   -1.2820   -1.9350 c3        1 MOL     -0.334595
    107 C35         0.2840   -1.5470   -2.0780 c         1 MOL      0.818427
    108 O17        -0.5690   -1.0080   -1.3590 o         1 MOL     -0.679857
    109 O18         0.0010   -2.3710   -3.0030 o         1 MOL     -0.679857
    110 H47         1.5810   -1.3270    0.6500 hn        1 MOL      0.310055
    111 H48         2.6660   -3.1980   -1.4850 h1        1 MOL      0.107181
    112 H49         2.1930   -1.3620   -2.9490 hc        1 MOL      0.080940
    113 H50         1.9440   -0.2300   -1.6850 hc        1 MOL      0.080940
    114 N11         4.9580   -1.9660   -1.6370 n         1 MOL     -0.755988
    115 C36         6.3730   -1.6820   -1.2880 c3        1 MOL      0.470413
    116 C37         6.6190   -0.1860   -1.0770 c         1 MOL      0.206498
    117 O19         7.3550    0.1060   -0.1360 o         1 MOL     -0.447894
    118 C38         7.1780   -2.3370   -2.3820 c3        1 MOL     -0.214093
    119 C39         8.6860   -2.0990   -2.3780 ca        1 MOL      0.170000
    120 C40         9.4700   -2.4760   -1.2260 ca        1 MOL     -0.258295
    121 C41         9.3650   -1.5000   -3.3860 ca        1 MOL     -0.258295
    122 C42        10.7840   -2.0760   -1.0530 ca        1 MOL      0.023614
    123 C43        10.6520   -0.9980   -3.1920 ca        1 MOL      0.023614
    124 C44        11.4280   -1.3050   -2.0390 ca        1 MOL     -0.266153
    125 H51         4.6850   -2.4570   -2.4740 hn        1 MOL      0.360538
    126 H52         6.6180   -2.1450   -0.3270 h1        1 MOL      0.027646
    127 H53         6.7560   -1.9060   -3.2900 hc        1 MOL      0.065093
    128 H54         7.0510   -3.4140   -2.4130 hc        1 MOL      0.065093
    129 H55         8.8860   -3.0340   -0.5100 ha        1 MOL      0.124465
    130 H56         8.8020   -1.2120   -4.2570 ha        1 MOL      0.124465
    131 H57        11.2420   -2.3930   -0.1300 ha        1 MOL      0.080668
    132 H58        10.9850   -0.4390   -4.0560 ha        1 MOL      0.080668
    133 H59        12.3390   -0.7800   -1.8490 ha        1 MOL      0.146010
    134 N12         6.0720    0.8030   -1.9000 n         1 MOL     -0.045880
    135 C45         6.2650    2.1480   -1.4940 c3        1 MOL      0.063659
    136 C46         5.5890    2.5580   -0.1330 c         1 MOL      0.216227
    137 O20         6.0210    3.4740    0.5710 o         1 MOL     -0.477479
    138 C47         5.5380    3.0220   -2.5510 c3        1 MOL     -0.126973
    139 C48         5.4460    2.0770   -3.8090 c3        1 MOL     -0.064496
    140 C49         5.3060    0.7930   -3.1890 c3        1 MOL     -0.001715
    141 H60         7.3360    2.3320   -1.4440 h1        1 MOL      0.058995
    142 H61         4.5060    3.2240   -2.2430 hc        1 MOL      0.073071
    143 H62         6.0610    3.9530   -2.7220 hc        1 MOL      0.073071
    144 H63         4.5830    2.3530   -4.4120 hc        1 MOL      0.044793
    145 H64         6.3550    2.0790   -4.4020 hc        1 MOL      0.044793
    146 H65         4.2910    0.5380   -2.9140 h1        1 MOL      0.028083
    147 H66         5.7610    0.0070   -3.7940 h1        1 MOL      0.028083
    148 N13         4.6900    1.7090    0.4540 n         1 MOL     -0.018660
    149 C50         4.1060    1.8660    1.7780 c3        1 MOL     -0.042615
    150 C51         4.8900    1.2050    2.8200 c         1 MOL      0.426045
    151 O21         5.0810    1.8130    3.9200 o         1 MOL     -0.578827
    152 C52         2.6520    1.4240    1.7310 c3        1 MOL      0.018779
    153 C53         1.7090    1.9770    0.6750 c3        1 MOL     -0.194727
    154 C54         0.3160    1.3850    0.7080 c         1 MOL      0.774406
    155 O22         0.0630    0.4320    1.4530 o         1 MOL     -0.830004
    156 O23        -0.5930    1.7740   -0.1180 o         1 MOL     -0.830004
    157 H67         4.3340    0.9190   -0.0620 hn        1 MOL      0.132374
    158 H68         4.1430    2.9270    2.0530 h1        1 MOL      0.097807
    159 H69         2.2380    1.6510    2.7170 hc        1 MOL      0.035496
    160 H70         2.6750    0.3500    1.5840 hc        1 MOL      0.035496
    161 H71         2.1870    1.7170   -0.2760 hc        1 MOL      0.040425
    162 H72         1.5720    3.0310    0.8680 hc        1 MOL      0.040425
    163 N14         5.4510    0.0260    2.6130 n         1 MOL     -0.055977
    164 C55         6.4510   -0.5810    3.4330 c3        1 MOL     -0.199379
    165 H73         6.7980    0.1390    4.1760 h1        1 MOL      0.074879
    166 H74         6.0280   -1.4490    3.9400 h1        1 MOL      0.074879
    167 H75         7.2900   -0.8950    2.8130 h1        1 MOL      0.074879
    168 H76         5.1830   -0.4260    1.7630 hn        1 MOL      0.112212
    169 Ca1        -2.3690    0.0420    0.0430 Ca        1 MOL      1.714329
    170 O24        -5.0170   -0.4790    1.4220 oh        1 MOL     -0.794792
    171 H77        -5.0650    0.4360    1.6870 ho        1 MOL      0.379368
    172 H78        -5.1920   -0.9700    2.2190 ho        1 MOL      0.379368
    173 O25        -2.1150    0.0400    2.9020 oh        1 MOL     -0.794792
    174 H79        -1.2050   -0.1490    2.6660 ho        1 MOL      0.379368
    175 H80        -2.1400   -0.0230    3.8500 ho        1 MOL      0.379368
@<TRIPOS>BOND
     1    1    2 1   
     2    1    4 1   
     3    1    5 1   
     4    1    6 1   
     5    2    3 2   
     6    2    7 1   
     7    7    8 1   
     8    7   15 1   
     9    8    9 1   
    10    8   11 1   
    11    8   16 1   
    12    9   10 2   
    13    9   19 1   
    14   11   12 1   
    15   11   17 1   
    16   11   18 1   
    17   12   13 1   
    18   12   14 1   
    19   19   20 1   
    20   19   24 1   
    21   20   21 1   
    22   20   23 1   
    23   20   25 1   
    24   21   22 2   
    25   21   29 1   
    26   23   26 1   
    27   23   27 1   
    28   23   28 1   
    29   29   30 1   
    30   29   37 1   
    31   30   31 1   
    32   30   33 1   
    33   30   38 1   
    34   31   32 2   
    35   31   41 1   
    36   33   34 1   
    37   33   39 1   
    38   33   40 1   
    39   34   35 1   
    40   34   36 1   
    41   41   42 1   
    42   41   45 1   
    43   42   43 1   
    44   42   46 1   
    45   42   47 1   
    46   43   44 2   
    47   43   48 1   
    48   48   49 1   
    49   48   56 1   
    50   49   50 1   
    51   49   52 1   
    52   49   57 1   
    53   50   51 2   
    54   50   62 1   
    55   52   53 1   
    56   52   58 1   
    57   52   59 1   
    58   53   54 1   
    59   53   55 2   
    60   54   60 1   
    61   54   61 1   
    62   62   63 1   
    63   62   66 1   
    64   63   64 1   
    65   63   67 1   
    66   63   68 1   
    67   64   65 2   
    68   64   69 1   
    69   69   70 1   
    70   69   76 1   
    71   70   71 1   
    72   70   73 1   
    73   70   77 1   
    74   71   72 2   
    75   71   83 1   
    76   73   74 1   
    77   73   75 1   
    78   73   78 1   
    79   74   80 1   
    80   74   81 1   
    81   74   82 1   
    82   75   79 1   
    83   83   84 1   
    84   83   91 1   
    85   84   85 1   
    86   84   87 1   
    87   84   92 1   
    88   85   86 2   
    89   85  102 1   
    90   87   88 1   
    91   87   89 1   
    92   87   93 1   
    93   88   90 1   
    94   88   94 1   
    95   88   95 1   
    96   89   96 1   
    97   89   97 1   
    98   89   98 1   
    99   90   99 1   
   100   90  100 1   
   101   90  101 1   
   102  102  103 1   
   103  102  110 1   
   104  103  104 1   
   105  103  106 1   
   106  103  111 1   
   107  104  105 2   
   108  104  114 1   
   109  106  107 1   
   110  106  112 1   
   111  106  113 1   
   112  107  108 1   
   113  107  109 1   
   114  114  115 1   
   115  114  125 1   
   116  115  116 1   
   117  115  118 1   
   118  115  126 1   
   119  116  117 2   
   120  116  134 1   
   121  118  119 1   
   122  118  127 1   
   123  118  128 1   
   124  119  120 ar  
   125  119  121 ar  
   126  120  122 ar  
   127  120  129 1   
   128  121  123 ar  
   129  121  130 1   
   130  122  124 ar  
   131  122  131 1   
   132  123  124 ar  
   133  123  132 1   
   134  124  133 1   
   135  134  135 1   
   136  134  140 1   
   137  135  136 1   
   138  135  138 1   
   139  135  141 1   
   140  136  137 2   
   141  136  148 1   
   142  138  139 1   
   143  138  142 1   
   144  138  143 1   
   145  139  140 1   
   146  139  144 1   
   147  139  145 1   
   148  140  146 1   
   149  140  147 1   
   150  148  149 1   
   151  148  157 1   
   152  149  150 1   
   153  149  152 1   
   154  149  158 1   
   155  150  151 2   
   156  150  163 1   
   157  152  153 1   
   158  152  159 1   
   159  152  160 1   
   160  153  154 1   
   161  153  161 1   
   162  153  162 1   
   163  154  155 1   
   164  154  156 1   
   165  163  164 1   
   166  163  168 1   
   167  164  165 1   
   168  164  166 1   
   169  164  167 1   
   170  170  171 1   
   171  170  172 1   
   172  173  174 1   
   173  173  175 1   
@<TRIPOS>SUBSTRUCTURE
     1 MOL         1 TEMP              0 ****  ****    0 ROOT
