@<TRIPOS>MOLECULE
MOL
  189   185     1     0     0
SMALL
resp


@<TRIPOS>ATOM
      1 C1         -0.9520    2.6830   -5.2350 c3        1 MOL     -0.333530
      2 C2         -0.2150    2.6380   -3.9090 c         1 MOL      0.640376
      3 O1         -0.6860    3.2130   -2.9190 o         1 MOL     -0.593122
      4 H1         -1.3090    3.6960   -5.4170 hc        1 MOL      0.087295
      5 H2         -0.2760    2.3870   -6.0370 hc        1 MOL      0.087295
      6 H3         -1.8000    1.9990   -5.2030 hc        1 MOL      0.087295
      7 N1          1.0440    2.0980   -3.9370 n         1 MOL     -0.484229
      8 C3          1.7280    1.7310   -2.6980 c3        1 MOL      0.020663
      9 C4          2.1930    2.9030   -1.8910 c         1 MOL      0.409753
     10 O2          3.1950    3.5590   -2.1430 o         1 MOL     -0.528893
     11 C5          3.0130    0.9250   -2.9980 c3        1 MOL     -0.148398
     12 C6          3.6140    0.3530   -1.6480 c         1 MOL      0.549355
     13 O3          3.0800    0.6030   -0.5690 o         1 MOL     -0.652121
     14 O4          4.6540   -0.4120   -1.7150 o         1 MOL     -0.652121
     15 H4          1.4680    1.8750   -4.8310 hn        1 MOL      0.311983
     16 H5          1.0780    1.1520   -2.0540 h1        1 MOL     -0.007771
     17 H6          3.6400    1.5360   -3.6540 hc        1 MOL      0.067906
     18 H7          2.7510    0.0470   -3.5910 hc        1 MOL      0.067906
     19 N2          1.4460    3.3530   -0.8860 n         1 MOL     -0.009320
     20 C7          1.4120    4.7580   -0.5250 c3        1 MOL      0.013804
     21 C8          2.6250    5.0580    0.3170 c         1 MOL      0.358477
     22 O5          3.1840    6.2000    0.4180 o         1 MOL     -0.570702
     23 C9          0.0100    5.0670    0.2280 c3        1 MOL     -0.090456
     24 C10        -0.0340    6.6180    0.3570 c3        1 MOL      0.147893
     25 C11        -0.0940    7.4890   -0.8850 c3        1 MOL     -0.420450
     26 C12        -1.2420    7.0380   -1.8370 c3        1 MOL      0.125814
     27 N3         -0.9170    7.3240   -3.2530 n4        1 MOL     -0.446301
     28 H8          0.6420    2.8040   -0.6090 hn        1 MOL      0.152322
     29 H9          1.5100    5.3370   -1.4380 h1        1 MOL      0.046034
     30 H10        -0.0300    4.6680    1.2430 hc        1 MOL      0.047238
     31 H11        -0.7980    4.7480   -0.4260 hc        1 MOL      0.047238
     32 H12         0.7200    7.0270    1.0120 hc        1 MOL      0.006448
     33 H13        -0.9420    6.8020    0.9400 hc        1 MOL      0.006448
     34 H14         0.8840    7.4680   -1.3720 hc        1 MOL      0.141771
     35 H15        -0.1320    8.5080   -0.5210 hc        1 MOL      0.141771
     36 H16        -2.1940    7.4800   -1.5580 hx        1 MOL      0.080189
     37 H17        -1.4730    5.9750   -1.7470 hx        1 MOL      0.080189
     38 H18        -1.4810    6.8220   -3.9180 hn        1 MOL      0.347507
     39 H19        -1.0560    8.3140   -3.4350 hn        1 MOL      0.347507
     40 H20         0.0350    7.0650   -3.4640 hn        1 MOL      0.347507
     41 N4          3.1740    4.0060    0.9840 n         1 MOL     -0.174207
     42 C13         4.2990    4.1000    1.9510 c3        1 MOL      0.153618
     43 C14         5.5410    3.3300    1.4250 c         1 MOL      0.291576
     44 O6          6.6080    3.4700    2.0280 o         1 MOL     -0.507671
     45 C15         3.9430    3.6430    3.3800 c3        1 MOL     -0.237509
     46 C16         3.1280    2.3040    3.4640 c         1 MOL      0.695515
     47 O7          3.0160    1.5190    2.4900 o         1 MOL     -0.671870
     48 O8          2.6370    1.9820    4.5590 o         1 MOL     -0.671870
     49 H21         2.7530    3.0900    0.9190 hn        1 MOL      0.088344
     50 H22         4.6660    5.1160    2.1160 h1        1 MOL      0.074786
     51 H23         3.3820    4.4390    3.8680 hc        1 MOL      0.058739
     52 H24         4.8860    3.5000    3.8920 hc        1 MOL      0.058739
     53 N5          5.4340    2.6000    0.2730 n         1 MOL     -0.024252
     54 C17         6.5180    2.0560   -0.4780 c3        1 MOL     -0.146694
     55 C18         7.1040    0.7950    0.1590 c         1 MOL      0.569565
     56 O9          8.2580    0.5240   -0.0260 o         1 MOL     -0.592697
     57 H25         4.5620    2.6260   -0.2310 hn        1 MOL      0.097650
     58 H26         7.2790    2.8170   -0.6220 h1        1 MOL      0.080225
     59 H27         6.1330    1.7430   -1.4430 h1        1 MOL      0.080225
     60 N6          6.3370    0.0820    1.0480 n         1 MOL     -0.193305
     61 C19         6.8780   -1.0760    1.7590 c3        1 MOL     -0.024626
     62 C20         6.9120   -2.3940    0.9290 c         1 MOL      0.405914
     63 O10         7.0620   -3.5060    1.5040 o         1 MOL     -0.538939
     64 C21         6.1940   -1.2580    3.1390 c3        1 MOL     -0.362897
     65 C22         4.6810   -1.6430    2.9740 c         1 MOL      0.804721
     66 O11         4.1650   -1.9090    1.8680 o         1 MOL     -0.657288
     67 O12         3.9680   -1.6670    4.0060 o         1 MOL     -0.657288
     68 H28         5.3390    0.2440    1.0680 hn        1 MOL      0.086264
     69 H29         7.9240   -0.7980    1.9520 h1        1 MOL      0.110375
     70 H30         6.3350   -0.3840    3.7740 hc        1 MOL      0.118976
     71 H31         6.5750   -2.1650    3.6110 hc        1 MOL      0.118976
     72 N7          6.6500   -2.2510   -0.3650 n         1 MOL     -0.191958
     73 C23         6.8120   -3.2970   -1.4330 c3        1 MOL     -0.338357
     74 C24         5.5750   -4.2000   -1.6180 c         1 MOL      0.597092
     75 O13         5.5800   -5.1790   -2.3610 o         1 MOL     -0.588026
     76 H32         6.3690   -1.3310   -0.6840 hn        1 MOL      0.286824
     77 H33         7.5890   -4.0190   -1.1600 h1        1 MOL      0.154945
     78 H34         6.9750   -2.8260   -2.3990 h1        1 MOL      0.154945
     79 N8          4.4910   -3.9430   -0.8580 n         1 MOL     -0.144745
     80 C25         3.1580   -4.5700   -0.8980 c3        1 MOL     -0.101432
     81 C26         1.9710   -3.6050   -0.9660 c         1 MOL      0.582999
     82 O14         2.0330   -2.5130   -0.3880 o         1 MOL     -0.531533
     83 C27         2.9860   -5.4490    0.3810 c3        1 MOL      0.307714
     84 C28         3.6580   -6.7920    0.2710 c3        1 MOL     -0.389985
     85 O15         3.4970   -4.9810    1.6610 oh        1 MOL     -0.642424
     86 H35         4.5560   -3.1920   -0.1890 hn        1 MOL      0.064028
     87 H36         3.1890   -5.1630   -1.8080 h1        1 MOL      0.078706
     88 H37         1.9270   -5.6670    0.5040 h1        1 MOL      0.057616
     89 H38         4.4540   -4.9780    1.6940 ho        1 MOL      0.449286
     90 H39         3.2670   -7.3300   -0.5890 hc        1 MOL      0.101025
     91 H40         4.7450   -6.6930    0.2240 hc        1 MOL      0.101025
     92 H41         3.4030   -7.4430    1.1100 hc        1 MOL      0.101025
     93 N9          0.7880   -4.0760   -1.4530 n         1 MOL     -0.645777
     94 C29        -0.4540   -3.2640   -1.6480 c3        1 MOL      0.176471
     95 C30        -1.6730   -3.8610   -0.9500 c         1 MOL      0.431392
     96 O16        -2.1910   -4.9370   -1.2310 o         1 MOL     -0.530512
     97 C31        -0.5900   -2.9220   -3.1530 c3        1 MOL      0.154694
     98 C32         0.4880   -1.9000   -3.7010 c3        1 MOL      0.166331
     99 C33        -2.0900   -2.3820   -3.4580 c3        1 MOL     -0.497610
    100 C34         0.7290   -1.9220   -5.2500 c3        1 MOL     -0.392717
    101 H42         0.8050   -5.0160   -1.8280 hn        1 MOL      0.326806
    102 H43        -0.1820   -2.3150   -1.1850 h1        1 MOL     -0.095451
    103 H44        -0.3610   -3.8650   -3.6470 hc        1 MOL     -0.011895
    104 H45         1.4210   -2.2040   -3.2420 hc        1 MOL      0.047154
    105 H46         0.1550   -0.8700   -3.5590 hc        1 MOL      0.047154
    106 H47        -2.1940   -2.3910   -4.5410 hc        1 MOL      0.114940
    107 H48        -2.8670   -3.0350   -3.0440 hc        1 MOL      0.114940
    108 H49        -2.1370   -1.3660   -3.0680 hc        1 MOL      0.114940
    109 H50         1.0940   -2.9170   -5.5190 hc        1 MOL      0.084758
    110 H51        -0.2130   -1.5720   -5.6600 hc        1 MOL      0.084758
    111 H52         1.5690   -1.2830   -5.5110 hc        1 MOL      0.084758
    112 N10        -2.1110   -3.0170   -0.0120 n         1 MOL     -0.085846
    113 C35        -3.2970   -3.2790    0.7840 c3        1 MOL     -0.174678
    114 C36        -4.5290   -2.9570    0.0210 c         1 MOL      0.478940
    115 O17        -4.4010   -2.3740   -1.0170 o         1 MOL     -0.414944
    116 C37        -3.2980   -2.3330    1.9430 c3        1 MOL      0.335305
    117 C38        -2.1350   -2.4600    2.8880 c3        1 MOL     -0.324991
    118 O18        -3.1630   -1.0260    1.5460 oh        1 MOL     -0.559381
    119 H53        -1.5810   -2.1670    0.0950 hn        1 MOL      0.233038
    120 H54        -3.3550   -4.3290    1.0670 h1        1 MOL      0.087114
    121 H55        -4.2490   -2.4240    2.4700 h1        1 MOL      0.014763
    122 H56        -2.2950   -0.9030    1.1610 ho        1 MOL      0.361042
    123 H57        -2.2690   -1.6720    3.6320 hc        1 MOL      0.055864
    124 H58        -2.1100   -3.4840    3.2750 hc        1 MOL      0.055864
    125 H59        -1.1730   -2.3170    2.4010 hc        1 MOL      0.055864
    126 N11        -5.6930   -3.3630    0.5510 n         1 MOL     -0.335745
    127 C39        -6.9660   -3.1210   -0.0920 c3        1 MOL     -0.027189
    128 C40        -7.1770   -1.6190   -0.1510 c         1 MOL      0.316811
    129 O19        -7.5520   -1.0340   -1.1720 o         1 MOL     -0.445316
    130 C41        -8.1970   -3.7270    0.5560 c3        1 MOL      0.200308
    131 C42        -8.4160   -5.2790    0.5130 c3        1 MOL     -0.384218
    132 O20        -8.1420   -3.5390    1.9150 oh        1 MOL     -0.640955
    133 H60        -5.8550   -3.8930    1.3980 hn        1 MOL      0.263827
    134 H61        -6.8900   -3.4340   -1.1330 h1        1 MOL      0.133064
    135 H62        -9.1120   -3.2370    0.2160 h1        1 MOL      0.078710
    136 H63        -8.8890   -4.0340    2.2760 ho        1 MOL      0.429445
    137 H64        -7.8830   -5.9140    1.2120 hc        1 MOL      0.112201
    138 H65        -9.4180   -5.4620    0.8920 hc        1 MOL      0.112201
    139 H66        -8.3610   -5.5860   -0.5260 hc        1 MOL      0.112201
    140 N12        -6.8130   -0.9520    0.9950 n         1 MOL     -0.184981
    141 C43        -6.9200    0.5270    1.0490 c3        1 MOL     -0.160396
    142 C44        -6.1850    1.2890   -0.1210 c         1 MOL      0.365917
    143 O21        -6.6280    2.3360   -0.6040 o         1 MOL     -0.537578
    144 C45        -6.6430    1.0410    2.4770 c3        1 MOL     -0.101745
    145 C46        -6.9840    2.4900    2.5570 c3        1 MOL      0.174361
    146 C47        -6.8590    3.1560    3.9310 c3        1 MOL     -0.137200
    147 C48        -7.8420    2.6450    5.0230 c3        1 MOL      0.125965
    148 N13        -7.6560    3.1670    6.3990 n4        1 MOL     -0.283571
    149 H67        -6.6670   -1.4510    1.8550 hn        1 MOL      0.232714
    150 H68        -7.9350    0.8580    0.8380 h1        1 MOL      0.131770
    151 H69        -5.6170    0.9690    2.8300 hc        1 MOL      0.046367
    152 H70        -7.2520    0.4750    3.1730 hc        1 MOL      0.046367
    153 H71        -8.0140    2.4340    2.2010 hc        1 MOL     -0.010452
    154 H72        -6.4810    3.0890    1.7990 hc        1 MOL     -0.010452
    155 H73        -7.0640    4.2190    3.7970 hc        1 MOL      0.054303
    156 H74        -5.8160    2.9870    4.1800 hc        1 MOL      0.054303
    157 H75        -7.7190    1.5630    5.0840 hx        1 MOL      0.041695
    158 H76        -8.8600    2.8370    4.6880 hx        1 MOL      0.041695
    159 H77        -7.5530    4.1660    6.3940 hn        1 MOL      0.261636
    160 H78        -8.4630    2.9590    6.9730 hn        1 MOL      0.261636
    161 H79        -6.8420    2.8260    6.8820 hn        1 MOL      0.261636
    162 N14        -5.1310    0.6830   -0.6050 n         1 MOL      0.133748
    163 C49        -4.1570    1.3590   -1.5370 c3        1 MOL     -0.164825
    164 C50        -4.6220    1.1260   -3.0040 c         1 MOL      0.419035
    165 O22        -4.2790    1.9490   -3.8600 o         1 MOL     -0.539862
    166 C51        -2.7390    0.8210   -1.2130 c3        1 MOL      0.210219
    167 C52        -1.9960    1.5140   -0.0910 c3        1 MOL     -0.206943
    168 C53        -0.7380    0.7730    0.3270 c         1 MOL      0.645323
    169 O23         0.2830    1.4190    0.6490 o         1 MOL     -0.641960
    170 O24        -0.7200   -0.4920    0.4950 o         1 MOL     -0.641960
    171 H80        -4.8530   -0.1240   -0.0550 hn        1 MOL     -0.026925
    172 H81        -4.1360    2.4340   -1.3420 h1        1 MOL      0.112770
    173 H82        -2.0460    0.8690   -2.0460 hc        1 MOL     -0.014947
    174 H83        -2.9530   -0.1960   -0.8870 hc        1 MOL     -0.014947
    175 H84        -2.6470    1.6570    0.7710 hc        1 MOL      0.039565
    176 H85        -1.7990    2.5460   -0.3990 hc        1 MOL      0.039565
    177 N15        -5.5850    0.1890   -3.2840 n         1 MOL     -0.079474
    178 C54        -6.3280    0.1160   -4.5600 c3        1 MOL     -0.273216
    179 H86        -6.6870    1.1090   -4.8280 h1        1 MOL      0.112885
    180 H87        -5.6680   -0.2550   -5.3450 h1        1 MOL      0.112885
    181 H88        -7.1770   -0.5600   -4.4480 h1        1 MOL      0.112885
    182 H89        -5.7730   -0.3960   -2.4840 hn        1 MOL      0.112386
    183 Ca1         2.0140   -0.5790    1.4220 Ca        1 MOL      1.757385
    184 O25         1.5050   -2.9800    2.5780 oh        1 MOL     -0.886141
    185 H90         2.1140   -3.7100    2.4590 ho        1 MOL      0.425957
    186 H91         1.0420   -3.1860    3.3900 ho        1 MOL      0.425957
    187 O26         0.5420   -0.1320    3.5990 oh        1 MOL     -0.886141
    188 H92         0.6980    0.0660    4.5280 ho        1 MOL      0.425957
    189 H93        -0.3520   -0.4730    3.5740 ho        1 MOL      0.425957
@<TRIPOS>BOND
     1    1    2 1   
     2    1    4 1   
     3    1    5 1   
     4    1    6 1   
     5    2    3 2   
     6    2    7 1   
     7    7    8 1   
     8    7   15 1   
     9    8    9 1   
    10    8   11 1   
    11    8   16 1   
    12    9   10 2   
    13    9   19 1   
    14   11   12 1   
    15   11   17 1   
    16   11   18 1   
    17   12   13 1   
    18   12   14 1   
    19   19   20 1   
    20   19   28 1   
    21   20   21 1   
    22   20   23 1   
    23   20   29 1   
    24   21   22 2   
    25   21   41 1   
    26   23   24 1   
    27   23   30 1   
    28   23   31 1   
    29   24   25 1   
    30   24   32 1   
    31   24   33 1   
    32   25   26 1   
    33   25   34 1   
    34   25   35 1   
    35   26   27 1   
    36   26   36 1   
    37   26   37 1   
    38   27   38 1   
    39   27   39 1   
    40   27   40 1   
    41   41   42 1   
    42   41   49 1   
    43   42   43 1   
    44   42   45 1   
    45   42   50 1   
    46   43   44 2   
    47   43   53 1   
    48   45   46 1   
    49   45   51 1   
    50   45   52 1   
    51   46   47 1   
    52   46   48 1   
    53   53   54 1   
    54   53   57 1   
    55   54   55 1   
    56   54   58 1   
    57   54   59 1   
    58   55   56 2   
    59   55   60 1   
    60   60   61 1   
    61   60   68 1   
    62   61   62 1   
    63   61   64 1   
    64   61   69 1   
    65   62   63 2   
    66   62   72 1   
    67   64   65 1   
    68   64   70 1   
    69   64   71 1   
    70   65   66 1   
    71   65   67 1   
    72   72   73 1   
    73   72   76 1   
    74   73   74 1   
    75   73   77 1   
    76   73   78 1   
    77   74   75 2   
    78   74   79 1   
    79   79   80 1   
    80   79   86 1   
    81   80   81 1   
    82   80   83 1   
    83   80   87 1   
    84   81   82 2   
    85   81   93 1   
    86   83   84 1   
    87   83   85 1   
    88   83   88 1   
    89   84   90 1   
    90   84   91 1   
    91   84   92 1   
    92   85   89 1   
    93   93   94 1   
    94   93  101 1   
    95   94   95 1   
    96   94   97 1   
    97   94  102 1   
    98   95   96 2   
    99   95  112 1   
   100   97   98 1   
   101   97   99 1   
   102   97  103 1   
   103   98  100 1   
   104   98  104 1   
   105   98  105 1   
   106   99  106 1   
   107   99  107 1   
   108   99  108 1   
   109  100  109 1   
   110  100  110 1   
   111  100  111 1   
   112  112  113 1   
   113  112  119 1   
   114  113  114 1   
   115  113  116 1   
   116  113  120 1   
   117  114  115 2   
   118  114  126 1   
   119  116  117 1   
   120  116  118 1   
   121  116  121 1   
   122  117  123 1   
   123  117  124 1   
   124  117  125 1   
   125  118  122 1   
   126  126  127 1   
   127  126  133 1   
   128  127  128 1   
   129  127  130 1   
   130  127  134 1   
   131  128  129 2   
   132  128  140 1   
   133  130  131 1   
   134  130  132 1   
   135  130  135 1   
   136  131  137 1   
   137  131  138 1   
   138  131  139 1   
   139  132  136 1   
   140  140  141 1   
   141  140  149 1   
   142  141  142 1   
   143  141  144 1   
   144  141  150 1   
   145  142  143 2   
   146  142  162 1   
   147  144  145 1   
   148  144  151 1   
   149  144  152 1   
   150  145  146 1   
   151  145  153 1   
   152  145  154 1   
   153  146  147 1   
   154  146  155 1   
   155  146  156 1   
   156  147  148 1   
   157  147  157 1   
   158  147  158 1   
   159  148  159 1   
   160  148  160 1   
   161  148  161 1   
   162  162  163 1   
   163  162  171 1   
   164  163  164 1   
   165  163  166 1   
   166  163  172 1   
   167  164  165 2   
   168  164  177 1   
   169  166  167 1   
   170  166  173 1   
   171  166  174 1   
   172  167  168 1   
   173  167  175 1   
   174  167  176 1   
   175  168  169 1   
   176  168  170 1   
   177  177  178 1   
   178  177  182 1   
   179  178  179 1   
   180  178  180 1   
   181  178  181 1   
   182  184  185 1   
   183  184  186 1   
   184  187  188 1   
   185  187  189 1   
@<TRIPOS>SUBSTRUCTURE
     1 MOL         1 TEMP              0 ****  ****    0 ROOT
