@<TRIPOS>MOLECULE
MOL
  180   179     1     0     0
SMALL
resp


@<TRIPOS>ATOM
      1 C1         -1.0780    1.9130    6.4130 c3        1 MOL     -0.217290
      2 C2         -1.2830    2.0930    4.8710 c         1 MOL      0.691671
      3 O1         -0.5520    2.9070    4.2740 o         1 MOL     -0.552909
      4 H1         -1.4860    0.9530    6.7240 hc        1 MOL      0.042163
      5 H2         -0.0130    1.9470    6.6450 hc        1 MOL      0.042163
      6 H3         -1.5910    2.7150    6.9440 hc        1 MOL      0.042163
      7 N1         -2.2440    1.3490    4.3180 n         1 MOL     -0.682412
      8 C3         -2.7400    1.3670    2.9340 c3        1 MOL      0.080860
      9 C4         -3.1580    2.8380    2.5710 c         1 MOL      0.761403
     10 O2         -3.9410    3.4730    3.3240 o         1 MOL     -0.611918
     11 C5         -3.9350    0.4310    2.8160 c3        1 MOL     -0.216848
     12 C6         -4.5730    0.2910    1.4500 c         1 MOL      0.818862
     13 O3         -5.6570   -0.3340    1.3530 o         1 MOL     -0.685094
     14 O4         -4.0810    0.8270    0.4840 o         1 MOL     -0.685094
     15 H4         -2.7200    0.8220    5.0370 hn        1 MOL      0.345909
     16 H5         -1.9170    1.0390    2.2920 h1        1 MOL      0.145326
     17 H6         -4.7710    0.7410    3.4370 hc        1 MOL      0.028678
     18 H7         -3.5750   -0.5770    3.0390 hc        1 MOL      0.028678
     19 N2         -2.7730    3.2640    1.3590 n         1 MOL     -0.656366
     20 C7         -3.0810    4.5770    0.7820 c3        1 MOL      0.057488
     21 C8         -4.1710    4.4470   -0.2920 c         1 MOL      0.464154
     22 O5         -5.0210    5.3190   -0.3370 o         1 MOL     -0.600771
     23 C9         -1.7470    5.2120    0.1660 c3        1 MOL      0.045566
     24 C10        -0.9050    5.6930    1.3980 c3        1 MOL      0.344115
     25 C11        -2.0080    6.3780   -0.7810 c3        1 MOL     -0.326382
     26 C12         0.4520    6.1130    1.0290 c3        1 MOL     -0.243465
     27 H8         -2.3160    2.5530    0.8030 hn        1 MOL      0.279023
     28 H9         -3.4460    5.2370    1.5670 h1        1 MOL      0.073271
     29 H10        -1.1790    4.4470   -0.3590 hc        1 MOL      0.081197
     30 H11        -0.8740    4.9370    2.1830 hc        1 MOL     -0.079092
     31 H12        -1.4350    6.5340    1.8510 hc        1 MOL     -0.079092
     32 H13        -2.5040    5.9240   -1.6360 hc        1 MOL      0.074823
     33 H14        -2.5740    7.1590   -0.2700 hc        1 MOL      0.074823
     34 H15        -1.0690    6.8390   -1.0910 hc        1 MOL      0.074823
     35 H16         0.8480    6.3680    2.0080 hc        1 MOL      0.034652
     36 H17         1.0700    5.3190    0.6110 hc        1 MOL      0.034652
     37 H18         0.5000    6.9710    0.3540 hc        1 MOL      0.034652
     38 N3         -4.3130    3.3710   -1.0190 n         1 MOL     -0.026055
     39 C13        -5.1970    3.2080   -2.1540 c3        1 MOL     -0.195060
     40 C14        -6.6400    2.8590   -1.7450 c         1 MOL      0.415592
     41 O6         -7.6250    3.0600   -2.5090 o         1 MOL     -0.543091
     42 C15        -4.8170    2.1720   -3.2890 c3        1 MOL      0.102728
     43 C16        -3.3540    1.8520   -3.5790 c         1 MOL      0.549302
     44 O7         -2.7750    2.2060   -4.6520 o         1 MOL     -0.671049
     45 O8         -2.6690    1.3980   -2.6330 o         1 MOL     -0.671049
     46 H19        -3.8530    2.5400   -0.6590 hn        1 MOL      0.094939
     47 H20        -5.1510    4.1810   -2.6340 h1        1 MOL      0.106056
     48 H21        -5.3830    2.3760   -4.2040 hc        1 MOL     -0.013803
     49 H22        -5.3350    1.2600   -2.9910 hc        1 MOL     -0.013803
     50 N4         -6.7770    2.2760   -0.5490 n         1 MOL     -0.161396
     51 C17        -7.9800    1.6260    0.0400 c3        1 MOL     -0.371809
     52 C18        -8.3710    0.2810   -0.5830 c         1 MOL      0.623115
     53 O9         -9.5070   -0.0500   -0.8450 o         1 MOL     -0.634568
     54 H23        -5.8930    2.2240   -0.0590 hn        1 MOL      0.235816
     55 H24        -8.8130    2.2890   -0.1910 h1        1 MOL      0.138729
     56 H25        -7.9030    1.2850    1.0760 h1        1 MOL      0.138729
     57 N5         -7.3720   -0.5010   -0.8780 n         1 MOL     -0.080541
     58 C19        -7.5020   -1.7080   -1.7220 c3        1 MOL     -0.234421
     59 C20        -7.4600   -2.9720   -0.8440 c         1 MOL      0.498071
     60 O10        -7.6330   -4.1080   -1.3300 o         1 MOL     -0.567527
     61 C21        -6.3830   -1.7200   -2.7950 c3        1 MOL      0.082311
     62 C22        -4.9770   -1.6230   -2.3400 c         1 MOL      0.709831
     63 O11        -4.0880   -1.0950   -3.0770 o         1 MOL     -0.762775
     64 O12        -4.6310   -1.9610   -1.2030 o         1 MOL     -0.762775
     65 H26        -6.4490   -0.2860   -0.5160 hn        1 MOL      0.073644
     66 H27        -8.3860   -1.6320   -2.3610 h1        1 MOL      0.148100
     67 H28        -6.6110   -0.8180   -3.3740 hc        1 MOL      0.003290
     68 H29        -6.5030   -2.5310   -3.5090 hc        1 MOL      0.003290
     69 N6         -7.0710   -2.8400    0.4430 n         1 MOL     -0.325956
     70 C23        -6.8080   -3.9530    1.4600 c3        1 MOL     -0.020242
     71 C24        -5.3770   -4.5050    1.5080 c         1 MOL      0.529155
     72 O13        -5.2550   -5.6020    2.0990 o         1 MOL     -0.591603
     73 H30        -6.5810   -2.0020    0.7410 hn        1 MOL      0.198897
     74 H31        -7.3680   -4.8860    1.3260 h1        1 MOL      0.056294
     75 H32        -7.0920   -3.5190    2.4210 h1        1 MOL      0.056294
     76 N7         -4.3690   -3.7760    0.9940 n         1 MOL     -0.233075
     77 C25        -2.9860   -4.2410    1.1460 c3        1 MOL     -0.084464
     78 C26        -1.9730   -3.0830    1.3120 c         1 MOL      0.703832
     79 O14        -2.3560   -1.9080    1.2260 o         1 MOL     -0.588342
     80 C27        -2.6780   -5.2990    0.0460 c3        1 MOL      0.197007
     81 C28        -3.0590   -5.1760   -1.4250 c3        1 MOL     -0.380337
     82 C29        -2.2900   -4.0680   -2.2140 c         1 MOL      0.596540
     83 N8         -1.9790   -4.1940   -3.4880 n         1 MOL     -0.689901
     84 O15        -1.8080   -3.0730   -1.6650 o         1 MOL     -0.589849
     85 H33        -4.5400   -2.9100    0.4940 hn        1 MOL      0.226024
     86 H34        -2.9300   -4.7860    2.0880 h1        1 MOL      0.051635
     87 H35        -3.1470   -6.2130    0.4150 hc        1 MOL     -0.033967
     88 H36        -1.6040   -5.4500    0.1230 hc        1 MOL     -0.033967
     89 H37        -4.1480   -5.0760   -1.5210 hc        1 MOL      0.130640
     90 H38        -2.7840   -6.0940   -1.9270 hc        1 MOL      0.130640
     91 H39        -2.1210   -5.1000   -3.9230 hn        1 MOL      0.342635
     92 H40        -1.3920   -3.5050   -3.9200 hn        1 MOL      0.342635
     93 N9         -0.7260   -3.4050    1.7060 n         1 MOL     -0.561603
     94 C30         0.3970   -2.5360    1.9390 c3        1 MOL     -0.014492
     95 C31         1.5820   -3.0610    1.0860 c         1 MOL      0.450980
     96 O16         2.3600   -3.9760    1.5000 o         1 MOL     -0.561023
     97 C32         0.7450   -2.4940    3.4540 c3        1 MOL      0.347940
     98 C33         1.7220   -1.2940    3.7680 c3        1 MOL     -0.332293
     99 C34        -0.4990   -2.4200    4.3540 c3        1 MOL     -0.332293
    100 H41        -0.6080   -4.4040    1.6300 hn        1 MOL      0.298572
    101 H42         0.1700   -1.5100    1.6460 h1        1 MOL      0.152102
    102 H43         1.3300   -3.3840    3.6680 hc        1 MOL     -0.047149
    103 H44         1.2520   -0.3210    3.7010 hc        1 MOL      0.066084
    104 H45         2.0600   -1.4100    4.8000 hc        1 MOL      0.066084
    105 H46         2.5890   -1.3940    3.1130 hc        1 MOL      0.066084
    106 H47        -1.1830   -3.2540    4.1600 hc        1 MOL      0.066084
    107 H48        -0.1780   -2.4760    5.3920 hc        1 MOL      0.066084
    108 H49        -1.0880   -1.5360    4.1190 hc        1 MOL      0.066084
    109 N10         1.9230   -2.4160   -0.0610 n         1 MOL     -0.273821
    110 C35         3.1650   -2.6770   -0.8220 c3        1 MOL      0.080488
    111 C36         4.3870   -2.0300   -0.0240 c         1 MOL      0.206568
    112 O17         4.2430   -1.1300    0.7560 o         1 MOL     -0.132691
    113 C37         2.9770   -1.8960   -2.1330 c3        1 MOL     -0.452301
    114 C38         4.0900   -2.1200   -3.1570 c         1 MOL      0.704127
    115 N11         3.7980   -2.8540   -4.2140 n         1 MOL     -0.769685
    116 O18         5.2450   -1.8150   -2.9300 o         1 MOL     -0.537992
    117 H50         1.2220   -1.7510   -0.3480 hn        1 MOL      0.196732
    118 H51         3.3610   -3.7160   -1.1020 h1        1 MOL      0.075252
    119 H52         2.8360   -0.8140   -2.0940 hc        1 MOL      0.166800
    120 H53         2.0080   -2.2460   -2.4850 hc        1 MOL      0.166800
    121 H54         2.8550   -3.1930   -4.3180 hn        1 MOL      0.357030
    122 H55         4.5230   -3.1750   -4.8430 hn        1 MOL      0.357030
    123 N12         5.5900   -2.6000   -0.1460 n         1 MOL     -0.415804
    124 C39         6.8390   -2.0290    0.2940 c3        1 MOL      0.236811
    125 C40         6.9750   -0.5220    0.0680 c         1 MOL      0.659749
    126 O19         7.5570    0.1170    0.9320 o         1 MOL     -0.532075
    127 C41         7.9820   -2.7930   -0.4530 c3        1 MOL     -0.183331
    128 C42         9.3850   -2.2340   -0.2880 ca        1 MOL      0.152641
    129 C43        10.0020   -2.1710    0.9530 ca        1 MOL     -0.287392
    130 C44        10.0650   -1.7090   -1.4220 ca        1 MOL     -0.287392
    131 C45        11.2170   -1.5410    1.1510 ca        1 MOL     -0.152919
    132 C46        11.2930   -1.0170   -1.2690 ca        1 MOL     -0.152919
    133 C47        11.8720   -0.9680    0.0360 ca        1 MOL      0.222076
    134 O20        13.0190   -0.2450    0.2590 oh        1 MOL     -0.474303
    135 H56         5.6510   -3.4800   -0.6300 hn        1 MOL      0.259769
    136 H57         6.8930   -2.0960    1.3780 h1        1 MOL     -0.013713
    137 H58         7.7390   -2.6720   -1.5060 hc        1 MOL      0.049022
    138 H59         7.9990   -3.8390   -0.1550 hc        1 MOL      0.049022
    139 H60         9.4410   -2.6090    1.7530 ha        1 MOL      0.158976
    140 H61         9.5660   -1.8520   -2.3700 ha        1 MOL      0.158976
    141 H62        11.6230   -1.2580    2.1150 ha        1 MOL      0.134004
    142 H63        11.8920   -0.6110   -2.0680 ha        1 MOL      0.134004
    143 H64        13.4080    0.0120   -0.5730 ho        1 MOL      0.350329
    144 N13         6.4390    0.1270   -0.9590 n         1 MOL     -0.434644
    145 C48         6.3960    1.5450   -1.0990 c3        1 MOL     -0.000142
    146 C49         5.5310    2.3440   -0.0390 c         1 MOL      0.268618
    147 O21         5.9250    3.3560    0.4520 o         1 MOL     -0.467036
    148 C50         5.8400    1.9490   -2.4730 c3        1 MOL      0.145693
    149 C51         6.2270    3.3310   -2.8560 c3        1 MOL     -0.264064
    150 C52         5.6600    3.7700   -4.2380 c         1 MOL      0.749228
    151 O22         5.4090    4.9450   -4.4360 o         1 MOL     -0.747445
    152 O23         5.5130    2.9040   -5.1340 o         1 MOL     -0.747445
    153 H65         6.1560   -0.4880   -1.7150 hn        1 MOL      0.272558
    154 H66         7.3870    1.9880   -1.0820 h1        1 MOL      0.056605
    155 H67         4.7440    1.8370   -2.4930 hc        1 MOL     -0.034610
    156 H68         6.1910    1.2110   -3.1990 hc        1 MOL     -0.034610
    157 H69         7.3200    3.3250   -2.9380 hc        1 MOL      0.036783
    158 H70         6.1200    4.0550   -2.0560 hc        1 MOL      0.036783
    159 N14         4.3890    1.7740    0.2290 n         1 MOL     -0.008414
    160 C53         3.5100    2.1920    1.2790 c3        1 MOL     -0.084549
    161 C54         4.0970    2.0000    2.6470 c         1 MOL      0.386153
    162 O24         4.0460    2.8890    3.4920 o         1 MOL     -0.542808
    163 C55         2.1500    1.4830    1.2240 c3        1 MOL     -0.007352
    164 C56         1.4450    1.5620   -0.1500 c3        1 MOL     -0.095776
    165 C57         0.1430    0.7500   -0.2010 c         1 MOL      0.684783
    166 O25        -0.9420    1.2660    0.0940 o         1 MOL     -0.773252
    167 O26         0.1640   -0.3960   -0.5570 o         1 MOL     -0.773252
    168 H71         4.1610    0.8760   -0.1570 hn        1 MOL      0.088367
    169 H72         3.3380    3.2590    1.1340 h1        1 MOL      0.109120
    170 H73         1.3970    1.8370    1.9290 hc        1 MOL      0.052347
    171 H74         2.2200    0.4190    1.4170 hc        1 MOL      0.052347
    172 H75         2.1160    1.3090   -0.9720 hc        1 MOL      0.046966
    173 H76         1.2600    2.6100   -0.3720 hc        1 MOL      0.046966
    174 N15         4.7570    0.8660    2.7980 n         1 MOL      0.011078
    175 C58         5.4590    0.4760    4.0240 c3        1 MOL     -0.092496
    176 H77         4.9940   -0.4170    4.4400 h1        1 MOL      0.041620
    177 H78         6.5040    0.2690    3.7950 h1        1 MOL      0.041620
    178 H79         5.4000    1.2870    4.7500 h1        1 MOL      0.041620
    179 H80         4.7410    0.2600    1.9940 hn        1 MOL     -0.049220
    180 Ca1        -2.4120   -0.6070   -1.1360 Ca        1 MOL      1.712014
@<TRIPOS>BOND
     1    1    2 1   
     2    1    4 1   
     3    1    5 1   
     4    1    6 1   
     5    2    3 2   
     6    2    7 1   
     7    7    8 1   
     8    7   15 1   
     9    8    9 1   
    10    8   11 1   
    11    8   16 1   
    12    9   10 2   
    13    9   19 1   
    14   11   12 1   
    15   11   17 1   
    16   11   18 1   
    17   12   13 1   
    18   12   14 1   
    19   19   20 1   
    20   19   27 1   
    21   20   21 1   
    22   20   23 1   
    23   20   28 1   
    24   21   22 2   
    25   21   38 1   
    26   23   24 1   
    27   23   25 1   
    28   23   29 1   
    29   24   26 1   
    30   24   30 1   
    31   24   31 1   
    32   25   32 1   
    33   25   33 1   
    34   25   34 1   
    35   26   35 1   
    36   26   36 1   
    37   26   37 1   
    38   38   39 1   
    39   38   46 1   
    40   39   40 1   
    41   39   42 1   
    42   39   47 1   
    43   40   41 2   
    44   40   50 1   
    45   42   43 1   
    46   42   48 1   
    47   42   49 1   
    48   43   44 1   
    49   43   45 1   
    50   50   51 1   
    51   50   54 1   
    52   51   52 1   
    53   51   55 1   
    54   51   56 1   
    55   52   53 2   
    56   52   57 1   
    57   57   58 1   
    58   57   65 1   
    59   58   59 1   
    60   58   61 1   
    61   58   66 1   
    62   59   60 2   
    63   59   69 1   
    64   61   62 1   
    65   61   67 1   
    66   61   68 1   
    67   62   63 1   
    68   62   64 1   
    69   69   70 1   
    70   69   73 1   
    71   70   71 1   
    72   70   74 1   
    73   70   75 1   
    74   71   72 2   
    75   71   76 1   
    76   76   77 1   
    77   76   85 1   
    78   77   78 1   
    79   77   80 1   
    80   77   86 1   
    81   78   79 2   
    82   78   93 1   
    83   80   81 1   
    84   80   87 1   
    85   80   88 1   
    86   81   82 1   
    87   81   89 1   
    88   81   90 1   
    89   82   83 1   
    90   82   84 2   
    91   83   91 1   
    92   83   92 1   
    93   93   94 1   
    94   93  100 1   
    95   94   95 1   
    96   94   97 1   
    97   94  101 1   
    98   95   96 2   
    99   95  109 1   
   100   97   98 1   
   101   97   99 1   
   102   97  102 1   
   103   98  103 1   
   104   98  104 1   
   105   98  105 1   
   106   99  106 1   
   107   99  107 1   
   108   99  108 1   
   109  109  110 1   
   110  109  117 1   
   111  110  111 1   
   112  110  113 1   
   113  110  118 1   
   114  111  112 2   
   115  111  123 1   
   116  113  114 1   
   117  113  119 1   
   118  113  120 1   
   119  114  115 1   
   120  114  116 2   
   121  115  121 1   
   122  115  122 1   
   123  123  124 1   
   124  123  135 1   
   125  124  125 1   
   126  124  127 1   
   127  124  136 1   
   128  125  126 2   
   129  125  144 1   
   130  127  128 1   
   131  127  137 1   
   132  127  138 1   
   133  128  129 ar  
   134  128  130 ar  
   135  129  131 ar  
   136  129  139 1   
   137  130  132 ar  
   138  130  140 1   
   139  131  133 ar  
   140  131  141 1   
   141  132  133 ar  
   142  132  142 1   
   143  133  134 1   
   144  134  143 1   
   145  144  145 1   
   146  144  153 1   
   147  145  146 1   
   148  145  148 1   
   149  145  154 1   
   150  146  147 2   
   151  146  159 1   
   152  148  149 1   
   153  148  155 1   
   154  148  156 1   
   155  149  150 1   
   156  149  157 1   
   157  149  158 1   
   158  150  151 1   
   159  150  152 1   
   160  159  160 1   
   161  159  168 1   
   162  160  161 1   
   163  160  163 1   
   164  160  169 1   
   165  161  162 2   
   166  161  174 1   
   167  163  164 1   
   168  163  170 1   
   169  163  171 1   
   170  164  165 1   
   171  164  172 1   
   172  164  173 1   
   173  165  166 1   
   174  165  167 1   
   175  174  175 1   
   176  174  179 1   
   177  175  176 1   
   178  175  177 1   
   179  175  178 1   
@<TRIPOS>SUBSTRUCTURE
     1 MOL         1 TEMP              0 ****  ****    0 ROOT
