@<TRIPOS>MOLECULE
MOL
  186   183     1     0     0
SMALL
resp


@<TRIPOS>ATOM
      1 C1          0.8810   -1.1860    6.6500 c3        1 MOL     -0.256192
      2 C2          1.1300   -1.3720    5.1370 c         1 MOL      0.759164
      3 O1          0.1800   -1.2990    4.3510 o         1 MOL     -0.601995
      4 H1          1.7170   -0.6440    7.0910 hc        1 MOL      0.054288
      5 H2         -0.0380   -0.6190    6.8010 hc        1 MOL      0.054288
      6 H3          0.7890   -2.1620    7.1270 hc        1 MOL      0.054288
      7 N1          2.3500   -1.5120    4.7050 n         1 MOL     -0.661382
      8 C3          2.7580   -1.7070    3.3030 c3        1 MOL      0.320447
      9 C4          2.8750   -3.1600    2.9160 c         1 MOL      0.343739
     10 O2          3.3580   -4.0420    3.7010 o         1 MOL     -0.572479
     11 C5          4.0980   -0.9800    3.0580 c3        1 MOL     -0.346714
     12 C6          4.6660   -0.8270    1.6190 c         1 MOL      0.980795
     13 O3          5.8290   -0.3640    1.5380 o         1 MOL     -0.775215
     14 O4          4.0710   -1.2270    0.6340 o         1 MOL     -0.775215
     15 H4          3.0790   -1.5870    5.4090 hn        1 MOL      0.326238
     16 H5          2.0100   -1.2700    2.6270 h1        1 MOL      0.037049
     17 H6          4.8570   -1.4010    3.7090 hc        1 MOL      0.059435
     18 H7          3.8760    0.0190    3.4390 hc        1 MOL      0.059435
     19 N2          2.4970   -3.5050    1.6750 n         1 MOL     -0.140017
     20 C7          2.3940   -4.8800    1.2210 c3        1 MOL     -0.024779
     21 C8          3.4050   -5.2040    0.0440 c         1 MOL      0.517286
     22 O5          3.6630   -6.4100   -0.1730 o         1 MOL     -0.575013
     23 C9          0.8850   -5.1020    0.9370 c3        1 MOL      0.268718
     24 C10         0.0170   -4.9260    2.2140 c3        1 MOL     -0.012098
     25 C11         0.6880   -6.4800    0.3020 c3        1 MOL     -0.309307
     26 C12        -1.4190   -5.4710    2.2260 c3        1 MOL     -0.187241
     27 H8          1.9190   -2.8590    1.1500 hn        1 MOL      0.089670
     28 H9          2.6740   -5.5300    2.0510 h1        1 MOL      0.041326
     29 H10         0.4990   -4.3330    0.2610 hc        1 MOL      0.021989
     30 H11        -0.0660   -3.8500    2.3050 hc        1 MOL      0.009950
     31 H12         0.5350   -5.2850    3.1090 hc        1 MOL      0.009950
     32 H13        -0.3710   -6.7540    0.3260 hc        1 MOL      0.058354
     33 H14         1.1770   -6.4510   -0.6730 hc        1 MOL      0.058354
     34 H15         1.1960   -7.2300    0.9010 hc        1 MOL      0.058354
     35 H16        -1.9740   -5.2600    3.1440 hc        1 MOL      0.044309
     36 H17        -1.8890   -4.9600    1.3860 hc        1 MOL      0.044309
     37 H18        -1.3730   -6.5400    2.0340 hc        1 MOL      0.044309
     38 N3          3.8300   -4.2090   -0.7570 n         1 MOL     -0.443316
     39 C13         4.5490   -4.3520   -2.0480 c3        1 MOL      0.022305
     40 C14         5.8150   -3.5150   -2.2360 c         1 MOL      0.383345
     41 O6          6.3990   -3.4060   -3.3220 o         1 MOL     -0.470879
     42 C15         3.5650   -4.1580   -3.1990 c3        1 MOL     -0.083126
     43 C16         3.1150   -2.7290   -3.4260 c         1 MOL      0.764445
     44 O7          3.2920   -1.8960   -2.4900 o         1 MOL     -0.718303
     45 O8          2.5190   -2.4490   -4.5090 o         1 MOL     -0.718303
     46 H19         3.4360   -3.2970   -0.5590 hn        1 MOL      0.266848
     47 H20         4.8330   -5.4020   -2.0510 h1        1 MOL      0.085351
     48 H21         2.7650   -4.8910   -3.1660 hc        1 MOL      0.016018
     49 H22         4.1600   -4.3900   -4.0800 hc        1 MOL      0.016018
     50 N4          6.3660   -2.9630   -1.1170 n         1 MOL     -0.124954
     51 C17         7.7450   -2.4910   -0.9650 c3        1 MOL     -0.248028
     52 C18         8.0820   -1.0650   -1.5360 c         1 MOL      0.693606
     53 O9          8.9850   -0.9660   -2.4230 o         1 MOL     -0.594582
     54 H23         5.7840   -2.9230   -0.2850 hn        1 MOL      0.186346
     55 H24         8.4660   -3.1220   -1.4780 h1        1 MOL      0.075570
     56 H25         7.9260   -2.5030    0.1130 h1        1 MOL      0.075570
     57 N5          7.3870   -0.0420   -1.0250 n         1 MOL     -0.588422
     58 C19         7.5550    1.3000   -1.5180 c3        1 MOL      0.125881
     59 C20         7.4770    2.4360   -0.4070 c         1 MOL      0.420240
     60 O10         7.7770    3.6300   -0.5960 o         1 MOL     -0.538519
     61 C21         6.6490    1.4420   -2.7510 c3        1 MOL     -0.277809
     62 C22         5.1850    1.2980   -2.2350 c         1 MOL      0.719776
     63 O11         4.8090    1.3460   -1.0300 o         1 MOL     -0.718493
     64 O12         4.2390    1.1140   -3.0720 o         1 MOL     -0.718493
     65 H26         6.8230   -0.2500   -0.2120 hn        1 MOL      0.304617
     66 H27         8.5760    1.3430   -1.8990 h1        1 MOL      0.051261
     67 H28         6.8180    0.6460   -3.4690 hc        1 MOL      0.102782
     68 H29         6.7590    2.4230   -3.2170 hc        1 MOL      0.102782
     69 N6          7.0280    2.0280    0.8180 n         1 MOL     -0.327761
     70 C23         6.9970    2.8990    1.9660 c3        1 MOL     -0.051416
     71 C24         5.8630    3.9160    1.8610 c         1 MOL      0.452143
     72 O13         5.8440    4.9640    2.4230 o         1 MOL     -0.591530
     73 H30         6.6290    1.1100    0.9350 hn        1 MOL      0.303012
     74 H31         7.9510    3.3670    2.2140 h1        1 MOL      0.058588
     75 H32         6.7990    2.1490    2.7260 h1        1 MOL      0.058588
     76 N7          4.9170    3.5530    1.0340 n         1 MOL     -0.043987
     77 C25         3.6590    4.2110    0.8230 c3        1 MOL     -0.073257
     78 C26         2.3840    3.2990    0.8860 c         1 MOL      0.477687
     79 O14         2.5210    2.0890    0.7810 o         1 MOL     -0.611361
     80 C27         3.7070    4.9530   -0.5310 c3        1 MOL      0.117422
     81 C28         2.6440    6.1120   -0.4550 c3        1 MOL     -0.150117
     82 C29         2.6110    6.8410   -1.7240 c         1 MOL      0.581278
     83 N8          3.2270    7.9730   -1.8580 n         1 MOL     -0.759615
     84 O15         2.1470    6.2840   -2.7070 o         1 MOL     -0.559009
     85 H33         4.9970    2.6310    0.6130 hn        1 MOL      0.100971
     86 H34         3.4470    5.0130    1.5330 h1        1 MOL      0.042126
     87 H35         3.4670    4.2620   -1.3360 hc        1 MOL      0.023903
     88 H36         4.6950    5.3500   -0.7540 hc        1 MOL      0.023903
     89 H37         2.9420    6.8480    0.2970 hc        1 MOL      0.021403
     90 H38         1.6230    5.7650   -0.3740 hc        1 MOL      0.021403
     91 H39         3.7190    8.2830   -1.0350 hn        1 MOL      0.355858
     92 H40         3.0850    8.4730   -2.7210 hn        1 MOL      0.355858
     93 N9          1.2120    3.7700    1.3800 n         1 MOL     -0.342002
     94 C30         0.0070    2.9800    1.6940 c3        1 MOL      0.054911
     95 C31        -1.1420    3.3850    0.7700 c         1 MOL      0.413313
     96 O16        -1.6530    4.4630    0.9820 o         1 MOL     -0.558505
     97 C32        -0.3920    3.1410    3.1720 c3        1 MOL      0.550642
     98 C33        -1.4250    2.1220    3.5780 c3        1 MOL     -0.424440
     99 C34         0.6970    3.0710    4.2040 c3        1 MOL     -0.424440
    100 H41         1.1440    4.7430    1.6410 hn        1 MOL      0.211013
    101 H42         0.2740    1.9390    1.4720 h1        1 MOL      0.056905
    102 H43        -0.8410    4.1360    3.2570 hc        1 MOL     -0.110459
    103 H44        -2.2520    2.1380    2.8800 hc        1 MOL      0.079843
    104 H45        -1.0230    1.1060    3.6430 hc        1 MOL      0.079843
    105 H46        -1.8700    2.4360    4.5170 hc        1 MOL      0.079843
    106 H47         1.3620    2.2670    3.8650 hc        1 MOL      0.079843
    107 H48         1.2950    3.9870    4.2690 hc        1 MOL      0.079843
    108 H49         0.2200    2.9150    5.1750 hc        1 MOL      0.079843
    109 N10        -1.6130    2.4760   -0.0750 n         1 MOL     -0.263038
    110 C35        -2.8210    2.6210   -0.9810 c3        1 MOL      0.066584
    111 C36        -4.1080    2.3000   -0.2920 c         1 MOL      0.227137
    112 O17        -4.1040    1.5710    0.6780 o         1 MOL     -0.212479
    113 C37        -2.5990    1.7940   -2.2950 c3        1 MOL     -0.273672
    114 C38        -3.7610    1.8380   -3.2720 c         1 MOL      0.608993
    115 N11        -3.6800    2.7180   -4.1920 n         1 MOL     -0.668276
    116 O18        -4.6490    1.0190   -3.2630 o         1 MOL     -0.544236
    117 H50        -1.2090    1.5530   -0.1230 hn        1 MOL      0.244569
    118 H51        -2.8600    3.6880   -1.1900 h1        1 MOL      0.042561
    119 H52        -2.3920    0.8280   -1.8390 hc        1 MOL      0.128320
    120 H53        -1.7030    2.1740   -2.7810 hc        1 MOL      0.128320
    121 H54        -2.9910    3.4470   -4.3340 hn        1 MOL      0.334759
    122 H55        -4.5440    2.6720   -4.7040 hn        1 MOL      0.334759
    123 N12        -5.2640    2.5930   -0.8410 n         1 MOL     -0.252668
    124 C39        -6.6220    2.0720   -0.4190 c3        1 MOL      0.019977
    125 C40        -6.7130    0.5450   -0.3770 c         1 MOL      0.750505
    126 O19        -7.4110    0.0000    0.4650 o         1 MOL     -0.557213
    127 C41        -7.7530    2.6520   -1.3030 c3        1 MOL     -0.221897
    128 C42        -9.1130    2.3260   -0.7120 ca        1 MOL      0.137779
    129 C43        -9.7440    3.0690    0.3050 ca        1 MOL     -0.267776
    130 C44        -9.9320    1.3260   -1.4080 ca        1 MOL     -0.267776
    131 C45       -10.9600    2.6010    0.8910 ca        1 MOL     -0.221979
    132 C46       -11.1430    0.8800   -0.8580 ca        1 MOL     -0.221979
    133 C47       -11.6280    1.4620    0.3390 ca        1 MOL      0.366044
    134 O20       -12.8240    1.0190    0.8820 oh        1 MOL     -0.570507
    135 H56        -5.2260    3.2590   -1.6000 hn        1 MOL      0.195710
    136 H57        -6.8530    2.5010    0.5580 h1        1 MOL      0.045614
    137 H58        -7.5800    2.1710   -2.2670 hc        1 MOL      0.071374
    138 H59        -7.5280    3.7140   -1.3420 hc        1 MOL      0.071374
    139 H60        -9.1600    3.7930    0.8410 ha        1 MOL      0.177151
    140 H61        -9.6630    0.8680   -2.3420 ha        1 MOL      0.177151
    141 H62       -11.3350    3.0700    1.7830 ha        1 MOL      0.142287
    142 H63       -11.7750    0.1340   -1.3250 ha        1 MOL      0.142287
    143 H64       -13.2360    0.3800    0.3020 ho        1 MOL      0.402040
    144 N13        -6.0990   -0.2490   -1.2040 n         1 MOL     -0.359744
    145 C48        -6.1020   -1.7040   -1.0920 c3        1 MOL     -0.108077
    146 C49        -5.3470   -2.1920    0.1830 c         1 MOL      0.312383
    147 O21        -5.6760   -3.1730    0.8120 o         1 MOL     -0.482352
    148 C50        -5.5520   -2.2910   -2.4640 c3        1 MOL      0.235940
    149 C51        -5.7440   -3.7730   -2.7890 c3        1 MOL     -0.320113
    150 C52        -7.1300   -4.2120   -3.2260 c         1 MOL      0.754008
    151 O22        -7.2890   -4.9630   -4.2180 o         1 MOL     -0.751194
    152 O23        -8.0780   -4.0110   -2.4930 o         1 MOL     -0.751194
    153 H65        -5.6220    0.1450   -2.0020 hn        1 MOL      0.181475
    154 H66        -7.1710   -1.9070   -0.9690 h1        1 MOL      0.147857
    155 H67        -4.5230   -1.9650   -2.6140 hc        1 MOL     -0.052960
    156 H68        -6.1110   -1.7370   -3.2210 hc        1 MOL     -0.052960
    157 H69        -5.4600   -4.3280   -1.8930 hc        1 MOL      0.047536
    158 H70        -5.0430   -4.1440   -3.5260 hc        1 MOL      0.047536
    159 N14        -4.3040   -1.4880    0.5100 n         1 MOL     -0.109295
    160 C53        -3.4750   -1.8010    1.6210 c3        1 MOL     -0.086094
    161 C54        -4.0670   -1.2490    2.9350 c         1 MOL      0.470061
    162 O24        -3.9840   -1.7790    4.0140 o         1 MOL     -0.555222
    163 C55        -2.0950   -1.1950    1.4850 c3        1 MOL      0.180247
    164 C56        -1.4030   -1.8150    0.2210 c3        1 MOL      0.108994
    165 C57         0.0040   -1.2350   -0.0160 c         1 MOL      0.606898
    166 O25         1.0530   -1.9230   -0.1250 o         1 MOL     -0.711006
    167 O26         0.1130    0.0060   -0.3140 o         1 MOL     -0.711006
    168 H71        -4.1130   -0.6650   -0.0540 hn        1 MOL      0.206072
    169 H72        -3.4070   -2.8700    1.8220 h1        1 MOL      0.089106
    170 H73        -1.5290   -1.5030    2.3630 hc        1 MOL     -0.035081
    171 H74        -2.1550   -0.1170    1.3310 hc        1 MOL     -0.035081
    172 H75        -2.0060   -1.7000   -0.6770 hc        1 MOL     -0.054463
    173 H76        -1.2280   -2.8820    0.3350 hc        1 MOL     -0.054463
    174 N15        -4.8530   -0.1540    2.8270 n         1 MOL      0.052639
    175 C58        -5.7640    0.3130    3.8450 c3        1 MOL     -0.508377
    176 H77        -6.5720   -0.4080    3.9680 h1        1 MOL      0.148694
    177 H78        -5.2290    0.4240    4.7880 h1        1 MOL      0.148694
    178 H79        -6.1800    1.2770    3.5460 h1        1 MOL      0.148694
    179 H80        -4.9220    0.3790    1.9670 hn        1 MOL     -0.088059
    180 Ca1         2.6340    0.1060   -1.1260 Ca        1 MOL      1.787496
    181 O27         1.4180    2.1740   -2.4680 oh        1 MOL     -0.817329
    182 H81         2.0580    2.3670   -3.1440 ho        1 MOL      0.383814
    183 H82         0.7950    2.9020   -2.5090 ho        1 MOL      0.383814
    184 O28         0.5370   -0.8590   -3.3500 oh        1 MOL     -0.817329
    185 H83        -0.4000   -0.9790   -3.4640 ho        1 MOL      0.383814
    186 H84         0.9410   -1.5420   -3.8800 ho        1 MOL      0.383814
@<TRIPOS>BOND
     1    1    2 1   
     2    1    4 1   
     3    1    5 1   
     4    1    6 1   
     5    2    3 2   
     6    2    7 1   
     7    7    8 1   
     8    7   15 1   
     9    8    9 1   
    10    8   11 1   
    11    8   16 1   
    12    9   10 2   
    13    9   19 1   
    14   11   12 1   
    15   11   17 1   
    16   11   18 1   
    17   12   13 1   
    18   12   14 1   
    19   19   20 1   
    20   19   27 1   
    21   20   21 1   
    22   20   23 1   
    23   20   28 1   
    24   21   22 2   
    25   21   38 1   
    26   23   24 1   
    27   23   25 1   
    28   23   29 1   
    29   24   26 1   
    30   24   30 1   
    31   24   31 1   
    32   25   32 1   
    33   25   33 1   
    34   25   34 1   
    35   26   35 1   
    36   26   36 1   
    37   26   37 1   
    38   38   39 1   
    39   38   46 1   
    40   39   40 1   
    41   39   42 1   
    42   39   47 1   
    43   40   41 2   
    44   40   50 1   
    45   42   43 1   
    46   42   48 1   
    47   42   49 1   
    48   43   44 1   
    49   43   45 1   
    50   50   51 1   
    51   50   54 1   
    52   51   52 1   
    53   51   55 1   
    54   51   56 1   
    55   52   53 2   
    56   52   57 1   
    57   57   58 1   
    58   57   65 1   
    59   58   59 1   
    60   58   61 1   
    61   58   66 1   
    62   59   60 2   
    63   59   69 1   
    64   61   62 1   
    65   61   67 1   
    66   61   68 1   
    67   62   63 1   
    68   62   64 1   
    69   69   70 1   
    70   69   73 1   
    71   70   71 1   
    72   70   74 1   
    73   70   75 1   
    74   71   72 2   
    75   71   76 1   
    76   76   77 1   
    77   76   85 1   
    78   77   78 1   
    79   77   80 1   
    80   77   86 1   
    81   78   79 2   
    82   78   93 1   
    83   80   81 1   
    84   80   87 1   
    85   80   88 1   
    86   81   82 1   
    87   81   89 1   
    88   81   90 1   
    89   82   83 1   
    90   82   84 2   
    91   83   91 1   
    92   83   92 1   
    93   93   94 1   
    94   93  100 1   
    95   94   95 1   
    96   94   97 1   
    97   94  101 1   
    98   95   96 2   
    99   95  109 1   
   100   97   98 1   
   101   97   99 1   
   102   97  102 1   
   103   98  103 1   
   104   98  104 1   
   105   98  105 1   
   106   99  106 1   
   107   99  107 1   
   108   99  108 1   
   109  109  110 1   
   110  109  117 1   
   111  110  111 1   
   112  110  113 1   
   113  110  118 1   
   114  111  112 2   
   115  111  123 1   
   116  113  114 1   
   117  113  119 1   
   118  113  120 1   
   119  114  115 1   
   120  114  116 2   
   121  115  121 1   
   122  115  122 1   
   123  123  124 1   
   124  123  135 1   
   125  124  125 1   
   126  124  127 1   
   127  124  136 1   
   128  125  126 2   
   129  125  144 1   
   130  127  128 1   
   131  127  137 1   
   132  127  138 1   
   133  128  129 ar  
   134  128  130 ar  
   135  129  131 ar  
   136  129  139 1   
   137  130  132 ar  
   138  130  140 1   
   139  131  133 ar  
   140  131  141 1   
   141  132  133 ar  
   142  132  142 1   
   143  133  134 1   
   144  134  143 1   
   145  144  145 1   
   146  144  153 1   
   147  145  146 1   
   148  145  148 1   
   149  145  154 1   
   150  146  147 2   
   151  146  159 1   
   152  148  149 1   
   153  148  155 1   
   154  148  156 1   
   155  149  150 1   
   156  149  157 1   
   157  149  158 1   
   158  150  151 1   
   159  150  152 1   
   160  159  160 1   
   161  159  168 1   
   162  160  161 1   
   163  160  163 1   
   164  160  169 1   
   165  161  162 2   
   166  161  174 1   
   167  163  164 1   
   168  163  170 1   
   169  163  171 1   
   170  164  165 1   
   171  164  172 1   
   172  164  173 1   
   173  165  166 1   
   174  165  167 1   
   175  174  175 1   
   176  174  179 1   
   177  175  176 1   
   178  175  177 1   
   179  175  178 1   
   180  181  182 1   
   181  181  183 1   
   182  184  185 1   
   183  184  186 1   
@<TRIPOS>SUBSTRUCTURE
     1 MOL         1 TEMP              0 ****  ****    0 ROOT
