@<TRIPOS>MOLECULE
MOL
  183   181     1     0     0
SMALL
resp


@<TRIPOS>ATOM
      1 C1         -1.0650   -0.4230    6.7120 c3        1 MOL     -0.257448
      2 C2         -1.2200   -0.0690    5.2040 c         1 MOL      0.843028
      3 O1         -0.3090    0.2990    4.5360 o         1 MOL     -0.619793
      4 H1         -0.0130   -0.3630    6.9930 hc        1 MOL      0.042641
      5 H2         -1.6420    0.2800    7.3120 hc        1 MOL      0.042641
      6 H3         -1.4290   -1.4350    6.8870 hc        1 MOL      0.042641
      7 N1         -2.4680   -0.2190    4.7670 n         1 MOL     -0.642899
      8 C3         -2.9400    0.2290    3.4460 c3        1 MOL      0.226551
      9 C4         -3.2740    1.7510    3.4800 c         1 MOL      0.437700
     10 O2         -4.0040    2.1010    4.3780 o         1 MOL     -0.571698
     11 C5         -4.2030   -0.5480    3.1080 c3        1 MOL     -0.222550
     12 C6         -4.8150   -0.0990    1.7740 c         1 MOL      0.850345
     13 O3         -6.0410   -0.1420    1.6710 o         1 MOL     -0.692657
     14 O4         -4.1040    0.3680    0.8260 o         1 MOL     -0.692657
     15 H4         -3.1670   -0.7010    5.3170 hn        1 MOL      0.314152
     16 H5         -2.1580    0.1180    2.7010 h1        1 MOL      0.011269
     17 H6         -4.9710   -0.5200    3.8720 hc        1 MOL      0.034454
     18 H7         -3.8860   -1.5800    2.9870 hc        1 MOL      0.034454
     19 N2         -2.8040    2.6200    2.5690 n         1 MOL     -0.156388
     20 C7         -2.9890    4.0550    2.5480 c3        1 MOL     -0.033803
     21 C8         -3.7420    4.6550    1.2910 c         1 MOL      0.392576
     22 O5         -4.4050    5.6990    1.4760 o         1 MOL     -0.615714
     23 C9         -1.5950    4.7600    2.7070 c3        1 MOL      0.031535
     24 C10        -0.7230    4.8530    1.4240 c3        1 MOL      0.069268
     25 C11        -0.7640    4.0410    3.7840 c3        1 MOL     -0.126799
     26 C12         0.6210    5.5110    1.4590 c3        1 MOL     -0.441149
     27 H8         -2.1860    2.2440    1.8510 hn        1 MOL      0.233505
     28 H9         -3.5910    4.3110    3.4260 h1        1 MOL      0.078554
     29 H10        -1.7750    5.7770    3.0700 hc        1 MOL     -0.002041
     30 H11        -1.1860    5.3860    0.5990 hc        1 MOL      0.039387
     31 H12        -0.4930    3.8310    1.1220 hc        1 MOL      0.039387
     32 H13        -0.3280    3.0820    3.5000 hc        1 MOL      0.024940
     33 H14         0.0670    4.6830    4.0890 hc        1 MOL      0.024940
     34 H15        -1.3230    3.8640    4.6970 hc        1 MOL      0.024940
     35 H16         1.2640    4.9050    2.0900 hc        1 MOL      0.110546
     36 H17         1.0190    5.4670    0.4440 hc        1 MOL      0.110546
     37 H18         0.5150    6.5760    1.6840 hc        1 MOL      0.110546
     38 N3         -3.8100    4.0150    0.2010 n         1 MOL     -0.062706
     39 C13        -4.5230    4.5780   -0.9930 c3        1 MOL     -0.058746
     40 C14        -5.6730    3.7050   -1.5010 c         1 MOL      0.380191
     41 O6         -6.2340    3.9900   -2.5910 o         1 MOL     -0.518714
     42 C15        -3.4080    4.5120   -2.0870 c3        1 MOL     -0.441912
     43 C16        -2.7090    3.1990   -2.2750 c         1 MOL      0.860023
     44 O7         -1.7300    3.2950   -3.0440 o         1 MOL     -0.705066
     45 O8         -3.0200    2.1630   -1.6190 o         1 MOL     -0.705066
     46 H19        -3.5860    3.0330    0.2490 hn        1 MOL      0.025988
     47 H20        -4.8340    5.5880   -0.7490 h1        1 MOL      0.137956
     48 H21        -2.7230    5.3030   -1.7920 hc        1 MOL      0.126304
     49 H22        -3.8210    4.6100   -3.0920 hc        1 MOL      0.126304
     50 N4         -6.0560    2.6860   -0.7730 n         1 MOL     -0.009066
     51 C17        -7.4800    2.3260   -0.7140 c3        1 MOL     -0.346230
     52 C18        -7.8540    1.2220   -1.6440 c         1 MOL      0.729482
     53 O9         -8.8150    1.2350   -2.3830 o         1 MOL     -0.629428
     54 H23        -5.6180    2.4750    0.1160 hn        1 MOL      0.196801
     55 H24        -7.9980    3.1930   -1.1290 h1        1 MOL      0.109011
     56 H25        -7.8100    2.0960    0.2980 h1        1 MOL      0.109011
     57 N5         -7.2280    0.0710   -1.4690 n         1 MOL     -0.296322
     58 C19        -7.4020   -1.1530   -2.1830 c3        1 MOL      0.036095
     59 C20        -7.3500   -2.3800   -1.3200 c         1 MOL      0.478451
     60 O10        -7.6420   -3.4290   -1.8190 o         1 MOL     -0.569381
     61 C21        -6.2210   -1.2230   -3.1650 c3        1 MOL     -0.299276
     62 C22        -4.8340   -1.0860   -2.5860 c         1 MOL      0.715826
     63 O11        -3.9390   -0.4630   -3.1850 o         1 MOL     -0.729183
     64 O12        -4.5420   -1.4730   -1.4090 o         1 MOL     -0.729183
     65 H26        -6.5320    0.0310   -0.7390 hn        1 MOL      0.031124
     66 H27        -8.3880   -1.1730   -2.6600 h1        1 MOL      0.096784
     67 H28        -6.3150   -0.3650   -3.8330 hc        1 MOL      0.092542
     68 H29        -6.1400   -2.1510   -3.7200 hc        1 MOL      0.092542
     69 N6         -7.0050   -2.3300   -0.0380 n         1 MOL     -0.333309
     70 C23        -6.8550   -3.5640    0.8370 c3        1 MOL     -0.066692
     71 C24        -5.7050   -4.4910    0.6610 c         1 MOL      0.601705
     72 O13        -5.7680   -5.5560    1.2750 o         1 MOL     -0.621322
     73 H30        -6.7010   -1.4450    0.3410 hn        1 MOL      0.267948
     74 H31        -7.7430   -4.1920    0.8880 h1        1 MOL      0.060532
     75 H32        -6.6240   -3.1760    1.8270 h1        1 MOL      0.060532
     76 N7         -4.6730   -4.1090   -0.0940 n         1 MOL     -0.376494
     77 C25        -3.3240   -4.6730   -0.1920 c3        1 MOL      0.126135
     78 C26        -2.2420   -3.6660    0.2880 c         1 MOL      0.740182
     79 O14        -2.6280   -2.5160    0.5850 o         1 MOL     -0.697268
     80 C27        -3.1040   -5.0950   -1.6860 c3        1 MOL     -0.238795
     81 C28        -3.1830   -4.0680   -2.7940 c3        1 MOL     -0.021436
     82 C29        -2.0570   -3.1050   -2.9780 c         1 MOL      0.534890
     83 N8         -1.7610   -2.6240   -4.1850 n         1 MOL     -0.774960
     84 O15        -1.4610   -2.5990   -2.0650 o         1 MOL     -0.514708
     85 H33        -4.7700   -3.2200   -0.5710 hn        1 MOL      0.294693
     86 H34        -3.1340   -5.5330    0.4460 h1        1 MOL      0.027404
     87 H35        -3.8600   -5.8490   -1.8780 hc        1 MOL      0.053796
     88 H36        -2.1070   -5.5310   -1.7180 hc        1 MOL      0.053796
     89 H37        -4.1330   -3.5450   -2.7870 hc        1 MOL      0.047314
     90 H38        -3.3450   -4.6360   -3.7170 hc        1 MOL      0.047314
     91 H39        -2.2010   -2.9230   -5.0440 hn        1 MOL      0.359458
     92 H40        -1.0070   -1.9470   -4.2660 hn        1 MOL      0.359458
     93 N9         -1.0380   -4.1870    0.4600 n         1 MOL     -0.595233
     94 C30         0.0550   -3.4260    1.0980 c3        1 MOL     -0.004594
     95 C31         1.3360   -3.6060    0.2440 c         1 MOL      0.580227
     96 O16         1.8120   -4.7390    0.2030 o         1 MOL     -0.603463
     97 C32         0.2770   -3.7070    2.6470 c3        1 MOL      0.351755
     98 C33         1.2810   -2.7220    3.2530 c3        1 MOL     -0.301618
     99 C34        -0.8930   -3.7700    3.6090 c3        1 MOL     -0.301618
    100 H41        -0.8080   -5.1340    0.2200 hn        1 MOL      0.314073
    101 H42        -0.1770   -2.3590    1.0520 h1        1 MOL      0.109060
    102 H43         0.7560   -4.6850    2.7430 hc        1 MOL     -0.076582
    103 H44         0.8200   -1.7250    3.2490 hc        1 MOL      0.059741
    104 H45         1.4930   -2.9770    4.2930 hc        1 MOL      0.059741
    105 H46         2.1590   -2.6860    2.6020 hc        1 MOL      0.059741
    106 H47        -1.2660   -2.7500    3.7540 hc        1 MOL      0.059741
    107 H48        -1.6320   -4.4270    3.1600 hc        1 MOL      0.059741
    108 H49        -0.7250   -4.1460    4.6160 hc        1 MOL      0.059741
    109 N10         1.9080   -2.5590   -0.3860 n         1 MOL     -0.282439
    110 C35         3.0170   -2.6890   -1.2910 c3        1 MOL      0.045862
    111 C36         4.3740   -2.1900   -0.7650 c         1 MOL      0.297264
    112 O17         4.4030   -1.5790    0.3020 o         1 MOL     -0.283352
    113 C37         2.6540   -2.0640   -2.5780 c3        1 MOL     -0.170232
    114 C38         2.9940   -0.6400   -2.7280 c         1 MOL      0.571087
    115 N11         2.1800    0.2570   -2.3090 n         1 MOL     -0.634242
    116 O18         4.0700   -0.3490   -3.2970 o         1 MOL     -0.626235
    117 H50         1.5710   -1.6260   -0.2190 hn        1 MOL      0.175684
    118 H51         3.1600   -3.7170   -1.6370 h1        1 MOL      0.066935
    119 H52         1.5820   -2.1670   -2.7500 hc        1 MOL      0.070393
    120 H53         3.0850   -2.6000   -3.4120 hc        1 MOL      0.070393
    121 H54         1.3360    0.0110   -1.8040 hn        1 MOL      0.349537
    122 H55         2.5500    1.1970   -2.3630 hn        1 MOL      0.349537
    123 N12         5.4590   -2.3520   -1.4430 n         1 MOL     -0.381273
    124 C39         6.7150   -2.0090   -0.8570 c3        1 MOL      0.062113
    125 C40         6.8440   -0.4590   -0.5510 c         1 MOL      0.778054
    126 O19         7.2360   -0.0990    0.5230 o         1 MOL     -0.562940
    127 C41         7.8910   -2.4140   -1.7320 c3        1 MOL     -0.177678
    128 C42         9.2130   -2.0080   -1.0760 ca        1 MOL      0.155379
    129 C43         9.5800   -2.7090    0.0920 ca        1 MOL     -0.330224
    130 C44         9.9950   -0.9280   -1.5670 ca        1 MOL     -0.330224
    131 C45        10.6050   -2.2010    0.9330 ca        1 MOL     -0.100031
    132 C46        11.0840   -0.5160   -0.7830 ca        1 MOL     -0.100031
    133 C47        11.4320   -1.1430    0.4860 ca        1 MOL      0.189227
    134 O20        12.4100   -0.6760    1.2800 oh        1 MOL     -0.477505
    135 H56         5.3810   -2.7900   -2.3420 hn        1 MOL      0.276886
    136 H57         6.7870   -2.5340    0.0890 h1        1 MOL      0.068710
    137 H58         7.8780   -2.0850   -2.7810 hc        1 MOL      0.060014
    138 H59         7.9330   -3.5050   -1.8260 hc        1 MOL      0.060014
    139 H60         8.9490   -3.4850    0.5100 ha        1 MOL      0.177052
    140 H61         9.6960   -0.4550   -2.4980 ha        1 MOL      0.177052
    141 H62        10.8640   -2.7360    1.8400 ha        1 MOL      0.107691
    142 H63        11.7070    0.3290   -1.0270 ha        1 MOL      0.107691
    143 H64        12.9000    0.0460    0.8850 ho        1 MOL      0.377038
    144 N13         6.3590    0.4260   -1.4020 n         1 MOL     -0.565957
    145 C48         6.3480    1.8660   -1.0960 c3        1 MOL      0.056654
    146 C49         5.5580    2.2100    0.1840 c         1 MOL      0.257365
    147 O21         5.7780    3.2200    0.8240 o         1 MOL     -0.490029
    148 C50         5.7590    2.4930   -2.3690 c3        1 MOL     -0.015389
    149 C51         6.0060    3.9440   -2.3150 c3        1 MOL     -0.339243
    150 C52         5.6420    4.5620   -3.7370 c         1 MOL      0.731448
    151 O22         6.4430    4.6100   -4.7050 o         1 MOL     -0.742544
    152 O23         4.4770    5.0450   -3.7810 o         1 MOL     -0.742544
    153 H65         6.0320    0.0920   -2.2980 hn        1 MOL      0.264087
    154 H66         7.4050    2.1060   -0.9790 h1        1 MOL      0.100995
    155 H67         4.7130    2.2410   -2.5170 hc        1 MOL      0.064012
    156 H68         6.2410    2.1500   -3.2900 hc        1 MOL      0.064012
    157 H69         7.0560    4.0900   -2.0420 hc        1 MOL      0.057673
    158 H70         5.4730    4.4910   -1.5350 hc        1 MOL      0.057673
    159 N14         4.5700    1.3860    0.5350 n         1 MOL      0.057792
    160 C53         3.7820    1.5220    1.7680 c3        1 MOL     -0.098209
    161 C54         4.4690    0.9770    3.0440 c         1 MOL      0.458049
    162 O24         4.3150    1.5960    4.0930 o         1 MOL     -0.560423
    163 C55         2.3850    0.8650    1.5950 c3        1 MOL      0.152265
    164 C56         1.4390    1.6380    0.6840 c3        1 MOL     -0.179000
    165 C57         0.1880    0.8480    0.2830 c         1 MOL      0.850930
    166 O25        -0.9770    1.2450    0.5840 o         1 MOL     -0.818989
    167 O26         0.3040   -0.1810   -0.4550 o         1 MOL     -0.818989
    168 H71         4.3200    0.5840   -0.0170 hn        1 MOL      0.048124
    169 H72         3.6390    2.5890    1.9400 h1        1 MOL      0.088414
    170 H73         1.9800    0.7770    2.5950 hc        1 MOL     -0.012423
    171 H74         2.5840   -0.1520    1.2590 hc        1 MOL     -0.012423
    172 H75         2.0420    2.0330   -0.1360 hc        1 MOL      0.061038
    173 H76         1.1070    2.4890    1.2750 hc        1 MOL      0.061038
    174 N15         5.1850   -0.1270    2.8640 n         1 MOL     -0.011541
    175 C58         5.8860   -0.9650    3.8680 c3        1 MOL     -0.417128
    176 H77         5.3070   -0.9840    4.7920 h1        1 MOL      0.137892
    177 H78         5.9930   -1.9800    3.4860 h1        1 MOL      0.137892
    178 H79         6.8730   -0.5450    4.0670 h1        1 MOL      0.137892
    179 H80         5.1470   -0.4810    1.9190 hn        1 MOL     -0.017282
    180 Ca1        -2.2990   -0.1880   -1.0520 Ca        1 MOL      1.767244
    181 O27        -0.9810    0.7590   -3.2550 oh        1 MOL     -0.876138
    182 H81        -0.6530    0.7050   -4.1530 ho        1 MOL      0.404414
    183 H82        -1.2410    1.6690   -3.1430 ho        1 MOL      0.404414
@<TRIPOS>BOND
     1    1    2 1   
     2    1    4 1   
     3    1    5 1   
     4    1    6 1   
     5    2    3 2   
     6    2    7 1   
     7    7    8 1   
     8    7   15 1   
     9    8    9 1   
    10    8   11 1   
    11    8   16 1   
    12    9   10 2   
    13    9   19 1   
    14   11   12 1   
    15   11   17 1   
    16   11   18 1   
    17   12   13 1   
    18   12   14 1   
    19   19   20 1   
    20   19   27 1   
    21   20   21 1   
    22   20   23 1   
    23   20   28 1   
    24   21   22 2   
    25   21   38 1   
    26   23   24 1   
    27   23   25 1   
    28   23   29 1   
    29   24   26 1   
    30   24   30 1   
    31   24   31 1   
    32   25   32 1   
    33   25   33 1   
    34   25   34 1   
    35   26   35 1   
    36   26   36 1   
    37   26   37 1   
    38   38   39 1   
    39   38   46 1   
    40   39   40 1   
    41   39   42 1   
    42   39   47 1   
    43   40   41 2   
    44   40   50 1   
    45   42   43 1   
    46   42   48 1   
    47   42   49 1   
    48   43   44 1   
    49   43   45 1   
    50   50   51 1   
    51   50   54 1   
    52   51   52 1   
    53   51   55 1   
    54   51   56 1   
    55   52   53 2   
    56   52   57 1   
    57   57   58 1   
    58   57   65 1   
    59   58   59 1   
    60   58   61 1   
    61   58   66 1   
    62   59   60 2   
    63   59   69 1   
    64   61   62 1   
    65   61   67 1   
    66   61   68 1   
    67   62   63 1   
    68   62   64 1   
    69   69   70 1   
    70   69   73 1   
    71   70   71 1   
    72   70   74 1   
    73   70   75 1   
    74   71   72 2   
    75   71   76 1   
    76   76   77 1   
    77   76   85 1   
    78   77   78 1   
    79   77   80 1   
    80   77   86 1   
    81   78   79 2   
    82   78   93 1   
    83   80   81 1   
    84   80   87 1   
    85   80   88 1   
    86   81   82 1   
    87   81   89 1   
    88   81   90 1   
    89   82   83 1   
    90   82   84 2   
    91   83   91 1   
    92   83   92 1   
    93   93   94 1   
    94   93  100 1   
    95   94   95 1   
    96   94   97 1   
    97   94  101 1   
    98   95   96 2   
    99   95  109 1   
   100   97   98 1   
   101   97   99 1   
   102   97  102 1   
   103   98  103 1   
   104   98  104 1   
   105   98  105 1   
   106   99  106 1   
   107   99  107 1   
   108   99  108 1   
   109  109  110 1   
   110  109  117 1   
   111  110  111 1   
   112  110  113 1   
   113  110  118 1   
   114  111  112 2   
   115  111  123 1   
   116  113  114 1   
   117  113  119 1   
   118  113  120 1   
   119  114  115 1   
   120  114  116 2   
   121  115  121 1   
   122  115  122 1   
   123  123  124 1   
   124  123  135 1   
   125  124  125 1   
   126  124  127 1   
   127  124  136 1   
   128  125  126 2   
   129  125  144 1   
   130  127  128 1   
   131  127  137 1   
   132  127  138 1   
   133  128  129 ar  
   134  128  130 ar  
   135  129  131 ar  
   136  129  139 1   
   137  130  132 ar  
   138  130  140 1   
   139  131  133 ar  
   140  131  141 1   
   141  132  133 ar  
   142  132  142 1   
   143  133  134 1   
   144  134  143 1   
   145  144  145 1   
   146  144  153 1   
   147  145  146 1   
   148  145  148 1   
   149  145  154 1   
   150  146  147 2   
   151  146  159 1   
   152  148  149 1   
   153  148  155 1   
   154  148  156 1   
   155  149  150 1   
   156  149  157 1   
   157  149  158 1   
   158  150  151 1   
   159  150  152 1   
   160  159  160 1   
   161  159  168 1   
   162  160  161 1   
   163  160  163 1   
   164  160  169 1   
   165  161  162 2   
   166  161  174 1   
   167  163  164 1   
   168  163  170 1   
   169  163  171 1   
   170  164  165 1   
   171  164  172 1   
   172  164  173 1   
   173  165  166 1   
   174  165  167 1   
   175  174  175 1   
   176  174  179 1   
   177  175  176 1   
   178  175  177 1   
   179  175  178 1   
   180  181  182 1   
   181  181  183 1   
@<TRIPOS>SUBSTRUCTURE
     1 MOL         1 TEMP              0 ****  ****    0 ROOT
