@<TRIPOS>MOLECULE
MOL
  183   181     1     0     0
SMALL
resp


@<TRIPOS>ATOM
      1 C1         -0.3210    1.1630    6.2730 c3        1 MOL     -0.297044
      2 C2         -0.6870    1.3570    4.8060 c         1 MOL      0.800579
      3 O1          0.0850    1.8860    4.0380 o         1 MOL     -0.591523
      4 H1          0.4440    0.3920    6.3570 hc        1 MOL      0.062303
      5 H2          0.0600    2.0990    6.6810 hc        1 MOL      0.062303
      6 H3         -1.2060    0.8580    6.8320 hc        1 MOL      0.062303
      7 N1         -1.8690    0.8660    4.3660 n         1 MOL     -0.658524
      8 C3         -2.4680    0.9340    3.0280 c3        1 MOL      0.142044
      9 C4         -2.9760    2.3190    2.6620 c         1 MOL      0.608389
     10 O2         -3.8710    2.8140    3.3270 o         1 MOL     -0.594676
     11 C5         -3.6900   -0.0250    2.9730 c3        1 MOL     -0.168387
     12 C6         -4.4510   -0.0370    1.6480 c         1 MOL      0.695924
     13 O3         -5.6170   -0.5240    1.6980 o         1 MOL     -0.644158
     14 O4         -3.9540    0.3360    0.5350 o         1 MOL     -0.644158
     15 H4         -2.5030    0.4610    5.0360 hn        1 MOL      0.322520
     16 H5         -1.7420    0.5770    2.2860 h1        1 MOL     -0.024331
     17 H6         -4.3580    0.1380    3.8150 hc        1 MOL      0.042365
     18 H7         -3.2910   -1.0310    3.1170 hc        1 MOL      0.042365
     19 N2         -2.4670    3.0410    1.6160 n         1 MOL     -0.307073
     20 C7         -2.7720    4.4360    1.2860 c3        1 MOL     -0.119905
     21 C8         -4.1890    4.4750    0.5680 c         1 MOL      0.464435
     22 O5         -4.9370    5.4430    0.6880 o         1 MOL     -0.584095
     23 C9         -1.7450    5.0960    0.3520 c3        1 MOL      0.275045
     24 C10        -0.2600    4.9630    0.8140 c3        1 MOL     -0.120411
     25 C11        -2.0230    6.6460    0.1370 c3        1 MOL     -0.219453
     26 C12         0.1780    5.5320    2.1700 c3        1 MOL     -0.082282
     27 H8         -1.7680    2.5990    1.0300 hn        1 MOL      0.190915
     28 H9         -2.7560    4.9900    2.2250 h1        1 MOL      0.084589
     29 H10        -1.8620    4.5500   -0.5740 hc        1 MOL     -0.018240
     30 H11         0.4040    5.3780    0.0540 hc        1 MOL      0.053574
     31 H12        -0.0410    3.9010    0.7700 hc        1 MOL      0.053574
     32 H13        -1.7680    7.2420    1.0140 hc        1 MOL      0.040488
     33 H14        -1.3970    6.9630   -0.7110 hc        1 MOL      0.040488
     34 H15        -3.0300    6.8740   -0.2140 hc        1 MOL      0.040488
     35 H16         1.2060    5.2740    2.4120 hc        1 MOL      0.013022
     36 H17        -0.0010    6.6120    2.1750 hc        1 MOL      0.013022
     37 H18        -0.4620    5.1570    2.9670 hc        1 MOL      0.013022
     38 N3         -4.5580    3.3760   -0.0930 n         1 MOL     -0.060651
     39 C13        -5.6810    3.2430   -1.0310 c3        1 MOL     -0.054245
     40 C14        -7.0580    2.7850   -0.4790 c         1 MOL      0.431865
     41 O6         -8.1310    3.1790   -0.9810 o         1 MOL     -0.553571
     42 C15        -5.3820    2.4150   -2.2850 c3        1 MOL     -0.189700
     43 C16        -3.8680    2.6890   -2.7440 c         1 MOL      0.672819
     44 O7         -2.9130    1.9900   -2.2510 o         1 MOL     -0.669261
     45 O8         -3.6630    3.5870   -3.6190 o         1 MOL     -0.669261
     46 H19        -3.8870    2.6240   -0.1120 hn        1 MOL      0.081887
     47 H20        -5.7860    4.2760   -1.3650 h1        1 MOL      0.086280
     48 H21        -6.1080    2.5870   -3.0740 hc        1 MOL      0.065524
     49 H22        -5.4840    1.3790   -1.9550 hc        1 MOL      0.065524
     50 N4         -7.0330    1.8270    0.4620 n         1 MOL     -0.281552
     51 C17        -8.1930    1.0340    0.8230 c3        1 MOL     -0.039039
     52 C18        -8.3830   -0.0720   -0.1460 c         1 MOL      0.479177
     53 O9         -9.3860   -0.7470   -0.0310 o         1 MOL     -0.587080
     54 H23        -6.1290    1.4650    0.6960 hn        1 MOL      0.146218
     55 H24        -9.1040    1.6250    0.8800 h1        1 MOL      0.085418
     56 H25        -8.1500    0.5890    1.8180 h1        1 MOL      0.085418
     57 N5         -7.4640   -0.3800   -1.1040 n         1 MOL     -0.223213
     58 C19        -7.5100   -1.6300   -1.8370 c3        1 MOL      0.042180
     59 C20        -7.4290   -2.9520   -0.9480 c         1 MOL      0.417100
     60 O10        -7.7730   -4.0480   -1.3560 o         1 MOL     -0.566687
     61 C21        -6.4700   -1.6530   -2.9220 c3        1 MOL     -0.200486
     62 C22        -4.9940   -1.4260   -2.4290 c         1 MOL      0.643071
     63 O11        -4.2670   -0.6560   -3.1230 o         1 MOL     -0.704711
     64 O12        -4.5680   -1.8320   -1.2750 o         1 MOL     -0.704711
     65 H26        -6.5980    0.1200   -1.2380 hn        1 MOL      0.164652
     66 H27        -8.4640   -1.6870   -2.3480 h1        1 MOL      0.053497
     67 H28        -6.8050   -0.8610   -3.5940 hc        1 MOL      0.058155
     68 H29        -6.5380   -2.6090   -3.4490 hc        1 MOL      0.058155
     69 N6         -6.8050   -2.7200    0.2150 n         1 MOL     -0.151681
     70 C23        -6.4320   -3.6470    1.2520 c3        1 MOL      0.009121
     71 C24        -5.2260   -4.4570    1.0540 c         1 MOL      0.444999
     72 O13        -5.1930   -5.5350    1.7310 o         1 MOL     -0.604808
     73 H30        -6.4900   -1.7820    0.4060 hn        1 MOL      0.191726
     74 H31        -7.2400   -4.3150    1.5490 h1        1 MOL      0.036275
     75 H32        -6.3210   -3.0280    2.1430 h1        1 MOL      0.036275
     76 N7         -4.1680   -3.9880    0.4230 n         1 MOL     -0.072948
     77 C25        -2.8680   -4.5110    0.5770 c3        1 MOL      0.049466
     78 C26        -1.7630   -3.4250    0.6450 c         1 MOL      0.504019
     79 O14        -2.0640   -2.2330    0.5810 o         1 MOL     -0.606302
     80 C27        -2.5640   -5.5220   -0.5320 c3        1 MOL     -0.132849
     81 C28        -2.9780   -5.0370   -1.9110 c3        1 MOL     -0.132882
     82 C29        -1.9800   -3.9680   -2.5600 c         1 MOL      0.576064
     83 N8         -1.3820   -4.3420   -3.6530 n         1 MOL     -0.746600
     84 O15        -1.8350   -2.8110   -2.1740 o         1 MOL     -0.540979
     85 H33        -4.2400   -3.1180   -0.0910 hn        1 MOL      0.140015
     86 H34        -2.7420   -5.0930    1.4950 h1        1 MOL      0.035691
     87 H35        -3.1530   -6.3860   -0.2450 hc        1 MOL      0.031414
     88 H36        -1.4890   -5.6790   -0.4810 hc        1 MOL      0.031414
     89 H37        -4.0190   -4.7090   -1.9000 hc        1 MOL      0.071178
     90 H38        -3.0220   -5.8870   -2.5930 hc        1 MOL      0.071178
     91 H39        -1.4640   -5.1980   -4.1820 hn        1 MOL      0.351484
     92 H40        -0.8620   -3.5750   -4.0730 hn        1 MOL      0.351484
     93 N9         -0.4940   -3.8230    0.8240 n         1 MOL     -0.387784
     94 C30         0.5840   -2.8970    1.2290 c3        1 MOL     -0.207815
     95 C31         1.8390   -3.3010    0.4240 c         1 MOL      0.594121
     96 O16         2.5510   -4.2490    0.6620 o         1 MOL     -0.581501
     97 C32         0.7720   -2.8940    2.7580 c3        1 MOL      0.343839
     98 C33         1.4260   -1.5480    3.2620 c3        1 MOL     -0.468258
     99 C34        -0.5370   -3.0210    3.5680 c3        1 MOL     -0.468258
    100 H41        -0.3930   -4.8190    0.9340 hn        1 MOL      0.293660
    101 H42         0.3640   -1.8470    1.0360 h1        1 MOL      0.207940
    102 H43         1.4470   -3.6890    3.0540 hc        1 MOL     -0.042051
    103 H44         1.4090   -1.5140    4.3570 hc        1 MOL      0.112886
    104 H45         2.3960   -1.4040    2.7880 hc        1 MOL      0.112886
    105 H46         0.7350   -0.7210    3.0540 hc        1 MOL      0.112886
    106 H47        -0.2040   -2.8610    4.5890 hc        1 MOL      0.112886
    107 H48        -1.2860   -2.2840    3.2760 hc        1 MOL      0.112886
    108 H49        -0.9710   -4.0260    3.5450 hc        1 MOL      0.112886
    109 N10         2.0590   -2.5480   -0.6470 n         1 MOL     -0.496304
    110 C35         3.3120   -2.5220   -1.3980 c3        1 MOL      0.369752
    111 C36         4.5550   -1.9250   -0.6780 c         1 MOL      0.352112
    112 O17         4.4010   -1.2320    0.3180 o         1 MOL     -0.288192
    113 C37         3.0320   -2.0190   -2.8180 c3        1 MOL     -0.522987
    114 C38         3.2440   -0.5320   -2.9540 c         1 MOL      0.741996
    115 N11         2.2240    0.2200   -2.9260 n         1 MOL     -0.817801
    116 O18         4.3230   -0.0980   -3.1000 o         1 MOL     -0.603800
    117 H50         1.4610   -1.7370   -0.6410 hn        1 MOL      0.243517
    118 H51         3.6660   -3.5440   -1.5120 h1        1 MOL     -0.006972
    119 H52         1.9910   -2.2690   -3.0420 hc        1 MOL      0.132447
    120 H53         3.7560   -2.5150   -3.4630 hc        1 MOL      0.132447
    121 H54         1.3810   -0.2400   -2.6210 hn        1 MOL      0.409775
    122 H55         2.3470    1.2190   -3.0050 hn        1 MOL      0.409775
    123 N12         5.7210   -1.9760   -1.3520 n         1 MOL     -0.518919
    124 C39         6.9690   -1.5830   -0.7260 c3        1 MOL      0.094803
    125 C40         6.9460   -0.0880   -0.3870 c         1 MOL      0.624349
    126 O19         7.4450    0.3600    0.6620 o         1 MOL     -0.551380
    127 C41         8.1280   -2.0870   -1.5550 c3        1 MOL      0.020710
    128 C42         9.4700   -2.1330   -0.8510 ca        1 MOL     -0.130975
    129 C43         9.5000   -3.0860    0.1620 ca        1 MOL     -0.064116
    130 C44        10.5390   -1.2230   -0.9070 ca        1 MOL     -0.064116
    131 C45        10.6040   -3.2310    1.1320 ca        1 MOL     -0.391353
    132 C46        11.6530   -1.3110    0.0020 ca        1 MOL     -0.391353
    133 C47        11.6370   -2.3100    1.0120 ca        1 MOL      0.489204
    134 O20        12.7960   -2.4450    1.6820 oh        1 MOL     -0.526687
    135 H56         5.7570   -2.5640   -2.1720 hn        1 MOL      0.284862
    136 H57         6.9000   -2.1280    0.2170 h1        1 MOL      0.058298
    137 H58         8.2510   -1.4690   -2.4460 hc        1 MOL      0.032314
    138 H59         7.9590   -3.0960   -1.9180 hc        1 MOL      0.032314
    139 H60         8.8570   -3.9480    0.0710 ha        1 MOL      0.121345
    140 H61        10.5290   -0.4500   -1.6570 ha        1 MOL      0.121345
    141 H62        10.6690   -4.0540    1.8240 ha        1 MOL      0.175941
    142 H63        12.4980   -0.6590   -0.0470 ha        1 MOL      0.175941
    143 H64        13.4200   -1.9320    1.1640 ho        1 MOL      0.345157
    144 N13         6.3320    0.7680   -1.2490 n         1 MOL     -0.506153
    145 C48         6.3400    2.2640   -1.1420 c3        1 MOL      0.011845
    146 C49         5.4190    2.7200    0.1220 c         1 MOL      0.310128
    147 O21         5.5630    3.7890    0.7300 o         1 MOL     -0.507217
    148 C50         5.7500    2.8080   -2.4880 c3        1 MOL     -0.040960
    149 C51         6.1670    4.3170   -2.4860 c3        1 MOL     -0.349123
    150 C52         5.7350    4.9770   -3.8010 c         1 MOL      0.667929
    151 O22         4.7970    5.8350   -3.7140 o         1 MOL     -0.715063
    152 O23         6.0990    4.5610   -4.9450 o         1 MOL     -0.715063
    153 H65         5.8470    0.4460   -2.0780 hn        1 MOL      0.272053
    154 H66         7.3400    2.6710   -1.0550 h1        1 MOL      0.097502
    155 H67         4.6640    2.7540   -2.4350 hc        1 MOL      0.081284
    156 H68         6.0770    2.2240   -3.3440 hc        1 MOL      0.081284
    157 H69         7.2260    4.4890   -2.2700 hc        1 MOL      0.079554
    158 H70         5.6630    4.9090   -1.7220 hc        1 MOL      0.079554
    159 N14         4.5500    1.7930    0.5530 n         1 MOL     -0.092700
    160 C53         3.5980    1.9620    1.6970 c3        1 MOL     -0.086468
    161 C54         4.2390    1.3310    2.9450 c         1 MOL      0.464380
    162 O24         4.0950    1.9800    4.0080 o         1 MOL     -0.558694
    163 C55         2.3340    1.2520    1.3670 c3        1 MOL      0.454061
    164 C56         1.7070    1.6480    0.0430 c3        1 MOL     -0.087666
    165 C57         0.3560    0.9200   -0.1760 c         1 MOL      0.800261
    166 O25        -0.7080    1.5360   -0.0100 o         1 MOL     -0.760229
    167 O26         0.3130   -0.1920   -0.7270 o         1 MOL     -0.760229
    168 H71         4.4470    0.9350    0.0190 hn        1 MOL      0.196550
    169 H72         3.3340    2.9840    1.9340 h1        1 MOL      0.116132
    170 H73         1.6470    1.4550    2.1950 hc        1 MOL     -0.112089
    171 H74         2.5840    0.1900    1.3670 hc        1 MOL     -0.112089
    172 H75         2.4320    1.3440   -0.7170 hc        1 MOL     -0.030375
    173 H76         1.6330    2.7300   -0.0800 hc        1 MOL     -0.030375
    174 N15         4.9120    0.1400    2.8710 n         1 MOL     -0.031344
    175 C58         5.7470   -0.4140    3.9230 c3        1 MOL     -0.536859
    176 H77         6.7330    0.0490    3.8860 h1        1 MOL      0.164307
    177 H78         5.2900   -0.2160    4.8930 h1        1 MOL      0.164307
    178 H79         5.8460   -1.4900    3.7810 h1        1 MOL      0.164307
    179 H80         5.0850   -0.1820    1.9410 hn        1 MOL      0.051199
    180 Ca1        -2.3060   -0.3450   -1.2070 Ca        1 MOL      1.711750
    181 O27        -1.1420   -0.1810   -3.6060 oh        1 MOL     -0.796418
    182 H81        -1.3010    0.6000   -4.1460 ho        1 MOL      0.390522
    183 H82        -0.9790   -0.8800   -4.2460 ho        1 MOL      0.390522
@<TRIPOS>BOND
     1    1    2 1   
     2    1    4 1   
     3    1    5 1   
     4    1    6 1   
     5    2    3 2   
     6    2    7 1   
     7    7    8 1   
     8    7   15 1   
     9    8    9 1   
    10    8   11 1   
    11    8   16 1   
    12    9   10 2   
    13    9   19 1   
    14   11   12 1   
    15   11   17 1   
    16   11   18 1   
    17   12   13 1   
    18   12   14 1   
    19   19   20 1   
    20   19   27 1   
    21   20   21 1   
    22   20   23 1   
    23   20   28 1   
    24   21   22 2   
    25   21   38 1   
    26   23   24 1   
    27   23   25 1   
    28   23   29 1   
    29   24   26 1   
    30   24   30 1   
    31   24   31 1   
    32   25   32 1   
    33   25   33 1   
    34   25   34 1   
    35   26   35 1   
    36   26   36 1   
    37   26   37 1   
    38   38   39 1   
    39   38   46 1   
    40   39   40 1   
    41   39   42 1   
    42   39   47 1   
    43   40   41 2   
    44   40   50 1   
    45   42   43 1   
    46   42   48 1   
    47   42   49 1   
    48   43   44 1   
    49   43   45 1   
    50   50   51 1   
    51   50   54 1   
    52   51   52 1   
    53   51   55 1   
    54   51   56 1   
    55   52   53 2   
    56   52   57 1   
    57   57   58 1   
    58   57   65 1   
    59   58   59 1   
    60   58   61 1   
    61   58   66 1   
    62   59   60 2   
    63   59   69 1   
    64   61   62 1   
    65   61   67 1   
    66   61   68 1   
    67   62   63 1   
    68   62   64 1   
    69   69   70 1   
    70   69   73 1   
    71   70   71 1   
    72   70   74 1   
    73   70   75 1   
    74   71   72 2   
    75   71   76 1   
    76   76   77 1   
    77   76   85 1   
    78   77   78 1   
    79   77   80 1   
    80   77   86 1   
    81   78   79 2   
    82   78   93 1   
    83   80   81 1   
    84   80   87 1   
    85   80   88 1   
    86   81   82 1   
    87   81   89 1   
    88   81   90 1   
    89   82   83 1   
    90   82   84 2   
    91   83   91 1   
    92   83   92 1   
    93   93   94 1   
    94   93  100 1   
    95   94   95 1   
    96   94   97 1   
    97   94  101 1   
    98   95   96 2   
    99   95  109 1   
   100   97   98 1   
   101   97   99 1   
   102   97  102 1   
   103   98  103 1   
   104   98  104 1   
   105   98  105 1   
   106   99  106 1   
   107   99  107 1   
   108   99  108 1   
   109  109  110 1   
   110  109  117 1   
   111  110  111 1   
   112  110  113 1   
   113  110  118 1   
   114  111  112 2   
   115  111  123 1   
   116  113  114 1   
   117  113  119 1   
   118  113  120 1   
   119  114  115 1   
   120  114  116 2   
   121  115  121 1   
   122  115  122 1   
   123  123  124 1   
   124  123  135 1   
   125  124  125 1   
   126  124  127 1   
   127  124  136 1   
   128  125  126 2   
   129  125  144 1   
   130  127  128 1   
   131  127  137 1   
   132  127  138 1   
   133  128  129 ar  
   134  128  130 ar  
   135  129  131 ar  
   136  129  139 1   
   137  130  132 ar  
   138  130  140 1   
   139  131  133 ar  
   140  131  141 1   
   141  132  133 ar  
   142  132  142 1   
   143  133  134 1   
   144  134  143 1   
   145  144  145 1   
   146  144  153 1   
   147  145  146 1   
   148  145  148 1   
   149  145  154 1   
   150  146  147 2   
   151  146  159 1   
   152  148  149 1   
   153  148  155 1   
   154  148  156 1   
   155  149  150 1   
   156  149  157 1   
   157  149  158 1   
   158  150  151 1   
   159  150  152 1   
   160  159  160 1   
   161  159  168 1   
   162  160  161 1   
   163  160  163 1   
   164  160  169 1   
   165  161  162 2   
   166  161  174 1   
   167  163  164 1   
   168  163  170 1   
   169  163  171 1   
   170  164  165 1   
   171  164  172 1   
   172  164  173 1   
   173  165  166 1   
   174  165  167 1   
   175  174  175 1   
   176  174  179 1   
   177  175  176 1   
   178  175  177 1   
   179  175  178 1   
   180  181  182 1   
   181  181  183 1   
@<TRIPOS>SUBSTRUCTURE
     1 MOL         1 TEMP              0 ****  ****    0 ROOT
