@<TRIPOS>MOLECULE
MOL
  179   176     1     0     0
SMALL
resp


@<TRIPOS>ATOM
      1 C1         -2.3420   -2.6320    5.7910 c3        1 MOL     -0.394002
      2 C2         -1.7930   -2.3670    4.3730 c         1 MOL      0.801387
      3 O1         -2.4560   -2.2560    3.3640 o         1 MOL     -0.608262
      4 H1         -2.5580   -1.6820    6.2800 hc        1 MOL      0.105310
      5 H2         -3.2570   -3.2210    5.7220 hc        1 MOL      0.105310
      6 H3         -1.6000   -3.1790    6.3730 hc        1 MOL      0.105310
      7 N1         -0.3880   -2.2600    4.2600 n         1 MOL     -0.622708
      8 C3          0.3230   -2.1840    3.0010 c3        1 MOL     -0.007940
      9 C4          0.3500   -3.5880    2.3800 c         1 MOL      0.553727
     10 O2          0.9340   -4.5520    2.9240 o         1 MOL     -0.522172
     11 C5          1.7120   -1.6540    3.3340 c3        1 MOL     -0.319197
     12 C6          2.6610   -1.3040    2.1660 c         1 MOL      0.721070
     13 O3          2.1750   -1.2540    1.0100 o         1 MOL     -0.689009
     14 O4          3.8650   -0.9720    2.4040 o         1 MOL     -0.689009
     15 H4          0.1570   -1.9890    5.0630 hn        1 MOL      0.326539
     16 H5         -0.1080   -1.4610    2.3080 h1        1 MOL      0.051811
     17 H6          2.1820   -2.4310    3.9380 hc        1 MOL      0.104783
     18 H7          1.5960   -0.7550    3.9380 hc        1 MOL      0.104783
     19 N2         -0.3650   -3.7760    1.2240 n         1 MOL     -0.237059
     20 C7         -0.6710   -5.1160    0.5900 c3        1 MOL     -0.092006
     21 C8          0.5980   -5.7520    0.0470 c         1 MOL      0.346605
     22 O5          0.9020   -6.9590    0.2210 o         1 MOL     -0.547753
     23 C9         -1.7920   -4.8670   -0.4280 c3        1 MOL     -0.014753
     24 C10        -2.4650   -6.2460   -0.8340 c3        1 MOL      0.069822
     25 C11        -3.7700   -6.0370   -1.6160 c3        1 MOL     -0.068230
     26 C12        -3.4040   -5.2280   -2.9070 c3        1 MOL      0.037876
     27 N3         -4.4140   -5.4210   -4.0040 n4        1 MOL     -0.402433
     28 H8         -0.8290   -2.9400    0.9050 hn        1 MOL      0.223945
     29 H9         -0.9920   -5.6840    1.4680 h1        1 MOL      0.112691
     30 H10        -1.4190   -4.3830   -1.3240 hc        1 MOL      0.052087
     31 H11        -2.5690   -4.2430    0.0160 hc        1 MOL      0.052087
     32 H12        -2.6010   -6.9520   -0.0140 hc        1 MOL      0.009107
     33 H13        -1.7850   -6.6990   -1.5530 hc        1 MOL      0.009107
     34 H14        -4.5510   -5.5870   -1.0100 hc        1 MOL      0.043625
     35 H15        -4.2990   -6.9570   -1.8580 hc        1 MOL      0.043625
     36 H16        -2.4710   -5.6620   -3.2540 hx        1 MOL      0.080995
     37 H17        -3.3080   -4.1600   -2.7070 hx        1 MOL      0.080995
     38 H18        -4.3260   -4.8180   -4.8080 hn        1 MOL      0.338967
     39 H19        -4.4450   -6.4110   -4.2150 hn        1 MOL      0.338967
     40 H20        -5.3010   -5.1220   -3.6210 hn        1 MOL      0.338967
     41 N4          1.3770   -4.9700   -0.6830 n         1 MOL     -0.047040
     42 C13         2.6390   -5.3300   -1.3560 c3        1 MOL      0.106317
     43 C14         3.8930   -4.8650   -0.5720 c         1 MOL      0.445284
     44 O6          4.9620   -4.9710   -1.1420 o         1 MOL     -0.514060
     45 C15         2.5140   -4.8210   -2.7570 c3        1 MOL     -0.322725
     46 C16         2.1130   -3.3470   -2.9980 c         1 MOL      0.821870
     47 O7          1.8410   -2.5740   -2.0360 o         1 MOL     -0.711649
     48 O8          1.9700   -2.9090   -4.1050 o         1 MOL     -0.711649
     49 H21         1.1570   -3.9910   -0.7960 hn        1 MOL      0.022030
     50 H22         2.7440   -6.4160   -1.3350 h1        1 MOL      0.077197
     51 H23         1.7090   -5.4270   -3.1790 hc        1 MOL      0.068195
     52 H24         3.4740   -5.0220   -3.2300 hc        1 MOL      0.068195
     53 N5          3.7270   -4.3400    0.6530 n         1 MOL     -0.372097
     54 C17         4.8620   -3.9650    1.6330 c3        1 MOL      0.108891
     55 C18         5.8330   -3.0050    0.9730 c         1 MOL      0.398724
     56 O9          7.0760   -3.1410    1.1780 o         1 MOL     -0.559680
     57 H25         2.7770   -4.2640    1.0030 hn        1 MOL      0.214547
     58 H26         5.3570   -4.8590    2.0290 h1        1 MOL      0.064580
     59 H27         4.4640   -3.5420    2.5480 h1        1 MOL      0.064580
     60 N6          5.3980   -2.0070    0.1360 n         1 MOL     -0.008517
     61 C19         6.2530   -1.1850   -0.6270 c3        1 MOL     -0.055942
     62 C20         6.3790    0.2900   -0.1500 c         1 MOL      0.282013
     63 O10         6.9500    1.1100   -0.8450 o         1 MOL     -0.449610
     64 C21         5.8650   -1.2010   -2.1340 c3        1 MOL     -0.226753
     65 C22         4.7760   -0.2510   -2.5370 c         1 MOL      0.621462
     66 N7          4.7080    0.2990   -3.7490 n         1 MOL     -0.775387
     67 O11         3.8660   -0.0290   -1.7520 o         1 MOL     -0.443867
     68 H28         4.4410   -1.7110    0.2380 hn        1 MOL     -0.048661
     69 H29         7.2650   -1.5340   -0.4600 h1        1 MOL      0.158655
     70 H30         5.4690   -2.1910   -2.3580 hc        1 MOL      0.088705
     71 H31         6.7670   -0.9880   -2.7040 hc        1 MOL      0.088705
     72 H32         5.3200    0.0100   -4.4980 hn        1 MOL      0.371584
     73 H33         3.9360    0.9460   -3.8350 hn        1 MOL      0.371584
     74 N8          6.0250    0.6100    1.0730 n         1 MOL     -0.241048
     75 C23         6.2720    1.8770    1.8840 c3        1 MOL     -0.104813
     76 C24         5.2340    2.9600    1.6530 c         1 MOL      0.485310
     77 O12         5.5130    4.1230    2.1110 o         1 MOL     -0.564226
     78 H34         5.4710   -0.0980    1.5220 hn        1 MOL      0.265120
     79 H35         7.2990    2.1840    1.6630 h1        1 MOL      0.113426
     80 H36         6.3540    1.6320    2.9460 h1        1 MOL      0.113426
     81 N9          4.1770    2.6950    0.9160 n         1 MOL     -0.300583
     82 C25         3.0130    3.6680    0.7720 c3        1 MOL      0.171120
     83 C26         1.7150    2.9370    0.8600 c         1 MOL      0.484362
     84 O13         1.6130    1.8170    0.3810 o         1 MOL     -0.619964
     85 C27         3.1900    4.4970   -0.5150 c3        1 MOL      0.066313
     86 C28         4.5160    5.2130   -0.7410 ca        1 MOL     -0.186637
     87 C29         5.6510    4.5280   -1.2690 ca        1 MOL     -0.028743
     88 C30         4.7040    6.5680   -0.3920 ca        1 MOL     -0.028743
     89 C31         6.9160    5.1330   -1.3510 ca        1 MOL     -0.311200
     90 C32         5.9060    7.2380   -0.5510 ca        1 MOL     -0.311200
     91 C33         6.9970    6.4880   -0.9430 ca        1 MOL      0.439401
     92 O14         8.1730    7.1960   -1.1900 oh        1 MOL     -0.531035
     93 H37         4.1440    1.7780    0.5020 hn        1 MOL      0.228370
     94 H38         3.0950    4.3350    1.6250 h1        1 MOL      0.045039
     95 H39         2.4030    5.2470   -0.5990 hc        1 MOL      0.014153
     96 H40         3.1180    3.8410   -1.3830 hc        1 MOL      0.014153
     97 H41         5.5530    3.5420   -1.7100 ha        1 MOL      0.089920
     98 H42         3.8730    7.1410   -0.0260 ha        1 MOL      0.089920
     99 H43         7.8330    4.7390   -1.7770 ha        1 MOL      0.154812
    100 H44         6.0730    8.2850   -0.3490 ha        1 MOL      0.154812
    101 H45         8.2280    8.0050   -0.6750 ho        1 MOL      0.352078
    102 N10         0.6100    3.5180    1.3680 n         1 MOL     -0.604724
    103 C34        -0.7130    2.8010    1.3480 c3        1 MOL      0.155698
    104 C35        -1.6330    3.6390    0.4040 c         1 MOL      0.538114
    105 O15        -1.8650    4.8480    0.6420 o         1 MOL     -0.563976
    106 C36        -1.2850    2.6440    2.8090 c3        1 MOL      0.219544
    107 C37        -0.2960    1.8170    3.7370 c3        1 MOL      0.028009
    108 C38        -2.7110    1.9240    2.9220 c3        1 MOL     -0.382660
    109 C39        -0.6040    1.9200    5.1940 c3        1 MOL     -0.138010
    110 H46         0.7790    4.3710    1.8940 hn        1 MOL      0.320556
    111 H47        -0.6080    1.7870    0.9640 h1        1 MOL      0.084254
    112 H48        -1.4020    3.6230    3.2600 hc        1 MOL     -0.021249
    113 H49         0.6950    2.2620    3.7190 hc        1 MOL      0.013889
    114 H50        -0.3970    0.7920    3.3640 hc        1 MOL      0.013889
    115 H51        -2.7010    0.8960    2.5640 hc        1 MOL      0.080237
    116 H52        -2.9430    1.9640    3.9870 hc        1 MOL      0.080237
    117 H53        -3.4010    2.5520    2.3690 hc        1 MOL      0.080237
    118 H54        -1.5640    1.4340    5.3740 hc        1 MOL      0.033402
    119 H55         0.0860    1.3870    5.8530 hc        1 MOL      0.033402
    120 H56        -0.7070    2.9250    5.6010 hc        1 MOL      0.033402
    121 N11        -2.3750    3.0330   -0.5560 n         1 MOL     -0.350696
    122 C40        -3.5040    3.6770   -1.3040 c3        1 MOL      0.002051
    123 C41        -4.8190    3.6250   -0.5930 c         1 MOL      0.495455
    124 O16        -4.9710    2.8160    0.3500 o         1 MOL     -0.411627
    125 C42        -3.6530    3.0630   -2.7120 c3        1 MOL     -0.214132
    126 O17        -4.4520    1.8620   -2.6960 oh        1 MOL     -0.496944
    127 H57        -2.2150    2.0540   -0.7590 hn        1 MOL      0.234496
    128 H58        -3.2570    4.7300   -1.4630 h1        1 MOL      0.082759
    129 H59        -2.6620    2.8620   -3.1210 h1        1 MOL      0.140781
    130 H60        -4.1100    3.8170   -3.3690 h1        1 MOL      0.140781
    131 H61        -3.9550    1.1690   -3.1380 ho        1 MOL      0.404319
    132 N12        -5.8140    4.4620   -1.0080 n         1 MOL     -0.463910
    133 C43        -7.1540    4.5350   -0.4010 c3        1 MOL      0.155794
    134 C44        -7.7180    3.0660   -0.5010 c         1 MOL      0.419881
    135 O18        -8.2070    2.5380    0.4850 o         1 MOL     -0.497489
    136 C45        -7.9400    5.5500   -1.1850 c3        1 MOL     -0.218666
    137 H62        -5.5340    5.0110   -1.8130 hn        1 MOL      0.286338
    138 H63        -7.1040    4.8740    0.6310 h1        1 MOL      0.089122
    139 H64        -7.5550    6.5620   -1.0960 hc        1 MOL      0.066758
    140 H65        -7.9080    5.2880   -2.2460 hc        1 MOL      0.066758
    141 H66        -8.9840    5.4600   -0.9020 hc        1 MOL      0.066758
    142 N13        -7.4780    2.4070   -1.6110 n         1 MOL     -0.327084
    143 C46        -8.0440    1.0670   -1.8980 c3        1 MOL      0.103968
    144 C47        -7.3250    0.0310   -1.0740 c         1 MOL      0.351394
    145 O19        -8.0290   -0.8300   -0.5310 o         1 MOL     -0.519218
    146 C48        -7.7730    0.8390   -3.3790 c3        1 MOL     -0.300626
    147 H67        -7.0550    2.9210   -2.3620 hn        1 MOL      0.260587
    148 H68        -9.0970    0.9100   -1.6750 h1        1 MOL      0.100640
    149 H69        -7.9290   -0.2050   -3.6150 hc        1 MOL      0.075949
    150 H70        -8.4030    1.4840   -3.9940 hc        1 MOL      0.075949
    151 H71        -6.7380    1.0460   -3.6610 hc        1 MOL      0.075949
    152 N14        -6.0540    0.1680   -0.7750 n         1 MOL      0.017191
    153 C49        -5.4100   -0.6930    0.2120 c3        1 MOL     -0.321844
    154 C50        -5.8980   -0.6470    1.7190 c         1 MOL      0.519417
    155 O20        -6.0070   -1.6620    2.3790 o         1 MOL     -0.521633
    156 C51        -3.8730   -0.5190    0.1250 c3        1 MOL      0.012961
    157 C52        -3.2190   -1.1010   -1.1800 c3        1 MOL     -0.070425
    158 C53        -1.6800   -0.8170   -1.1330 c         1 MOL      0.532937
    159 O21        -0.8910   -1.5770   -0.5190 o         1 MOL     -0.688835
    160 O22        -1.1270    0.2910   -1.4770 o         1 MOL     -0.688835
    161 H72        -5.5260    0.8660   -1.2780 hn        1 MOL      0.076823
    162 H73        -5.7010   -1.7300    0.0210 h1        1 MOL      0.109970
    163 H74        -3.4380   -1.0860    0.9470 hc        1 MOL      0.106198
    164 H75        -3.5420    0.5130    0.1940 hc        1 MOL      0.106198
    165 H76        -3.7140   -0.5190   -1.9580 hc        1 MOL     -0.008071
    166 H77        -3.4410   -2.1500   -1.3490 hc        1 MOL     -0.008071
    167 N15        -6.2430    0.5570    2.1680 n         1 MOL     -0.059221
    168 C54        -6.7710    0.8490    3.4690 c3        1 MOL     -0.319645
    169 H78        -6.7200    1.9230    3.6490 h1        1 MOL      0.114220
    170 H79        -7.8090    0.5190    3.5230 h1        1 MOL      0.114220
    171 H80        -6.1840    0.3270    4.2250 h1        1 MOL      0.114220
    172 H81        -6.2590    1.3580    1.5560 hn        1 MOL      0.155497
    173 Ca1         1.2970   -0.3630   -1.1120 Ca        1 MOL      1.752619
    174 O23         1.6060    1.9620   -2.2200 oh        1 MOL     -0.889150
    175 H82         0.9070    2.6180   -2.1610 ho        1 MOL      0.409518
    176 H83         2.1660    2.2760   -2.9240 ho        1 MOL      0.409518
    177 O24         1.4710   -0.2810   -3.9750 oh        1 MOL     -0.889150
    178 H84         1.0870    0.2100   -4.6930 ho        1 MOL      0.409518
    179 H85         1.8140   -1.0760   -4.3850 ho        1 MOL      0.409518
@<TRIPOS>BOND
     1    1    2 1   
     2    1    4 1   
     3    1    5 1   
     4    1    6 1   
     5    2    3 2   
     6    2    7 1   
     7    7    8 1   
     8    7   15 1   
     9    8    9 1   
    10    8   11 1   
    11    8   16 1   
    12    9   10 2   
    13    9   19 1   
    14   11   12 1   
    15   11   17 1   
    16   11   18 1   
    17   12   13 1   
    18   12   14 1   
    19   19   20 1   
    20   19   28 1   
    21   20   21 1   
    22   20   23 1   
    23   20   29 1   
    24   21   22 2   
    25   21   41 1   
    26   23   24 1   
    27   23   30 1   
    28   23   31 1   
    29   24   25 1   
    30   24   32 1   
    31   24   33 1   
    32   25   26 1   
    33   25   34 1   
    34   25   35 1   
    35   26   27 1   
    36   26   36 1   
    37   26   37 1   
    38   27   38 1   
    39   27   39 1   
    40   27   40 1   
    41   41   42 1   
    42   41   49 1   
    43   42   43 1   
    44   42   45 1   
    45   42   50 1   
    46   43   44 2   
    47   43   53 1   
    48   45   46 1   
    49   45   51 1   
    50   45   52 1   
    51   46   47 1   
    52   46   48 1   
    53   53   54 1   
    54   53   57 1   
    55   54   55 1   
    56   54   58 1   
    57   54   59 1   
    58   55   56 2   
    59   55   60 1   
    60   60   61 1   
    61   60   68 1   
    62   61   62 1   
    63   61   64 1   
    64   61   69 1   
    65   62   63 2   
    66   62   74 1   
    67   64   65 1   
    68   64   70 1   
    69   64   71 1   
    70   65   66 1   
    71   65   67 2   
    72   66   72 1   
    73   66   73 1   
    74   74   75 1   
    75   74   78 1   
    76   75   76 1   
    77   75   79 1   
    78   75   80 1   
    79   76   77 2   
    80   76   81 1   
    81   81   82 1   
    82   81   93 1   
    83   82   83 1   
    84   82   85 1   
    85   82   94 1   
    86   83   84 2   
    87   83  102 1   
    88   85   86 1   
    89   85   95 1   
    90   85   96 1   
    91   86   87 ar  
    92   86   88 ar  
    93   87   89 ar  
    94   87   97 1   
    95   88   90 ar  
    96   88   98 1   
    97   89   91 ar  
    98   89   99 1   
    99   90   91 ar  
   100   90  100 1   
   101   91   92 1   
   102   92  101 1   
   103  102  103 1   
   104  102  110 1   
   105  103  104 1   
   106  103  106 1   
   107  103  111 1   
   108  104  105 2   
   109  104  121 1   
   110  106  107 1   
   111  106  108 1   
   112  106  112 1   
   113  107  109 1   
   114  107  113 1   
   115  107  114 1   
   116  108  115 1   
   117  108  116 1   
   118  108  117 1   
   119  109  118 1   
   120  109  119 1   
   121  109  120 1   
   122  121  122 1   
   123  121  127 1   
   124  122  123 1   
   125  122  125 1   
   126  122  128 1   
   127  123  124 2   
   128  123  132 1   
   129  125  126 1   
   130  125  129 1   
   131  125  130 1   
   132  126  131 1   
   133  132  133 1   
   134  132  137 1   
   135  133  134 1   
   136  133  136 1   
   137  133  138 1   
   138  134  135 2   
   139  134  142 1   
   140  136  139 1   
   141  136  140 1   
   142  136  141 1   
   143  142  143 1   
   144  142  147 1   
   145  143  144 1   
   146  143  146 1   
   147  143  148 1   
   148  144  145 2   
   149  144  152 1   
   150  146  149 1   
   151  146  150 1   
   152  146  151 1   
   153  152  153 1   
   154  152  161 1   
   155  153  154 1   
   156  153  156 1   
   157  153  162 1   
   158  154  155 2   
   159  154  167 1   
   160  156  157 1   
   161  156  163 1   
   162  156  164 1   
   163  157  158 1   
   164  157  165 1   
   165  157  166 1   
   166  158  159 1   
   167  158  160 1   
   168  167  168 1   
   169  167  172 1   
   170  168  169 1   
   171  168  170 1   
   172  168  171 1   
   173  174  175 1   
   174  174  176 1   
   175  177  178 1   
   176  177  179 1   
@<TRIPOS>SUBSTRUCTURE
     1 MOL         1 TEMP              0 ****  ****    0 ROOT
