@<TRIPOS>MOLECULE
MOL
  189   185     1     0     0
SMALL
resp


@<TRIPOS>ATOM
      1 C1         -0.6490   -3.6740    5.9610 c3        1 MOL     -0.403030
      2 C2          0.0600   -3.2580    4.6880 c         1 MOL      0.792214
      3 O1          0.2960   -2.0550    4.4860 o         1 MOL     -0.634667
      4 H1         -0.3340   -4.6790    6.2410 hc        1 MOL      0.101285
      5 H2         -0.3970   -2.9790    6.7620 hc        1 MOL      0.101285
      6 H3         -1.7270   -3.6640    5.7980 hc        1 MOL      0.101285
      7 N1          0.5380   -4.1880    3.8880 n         1 MOL     -0.635913
      8 C3          1.3140   -3.8680    2.5990 c3        1 MOL      0.347567
      9 C4          1.1160   -4.9760    1.5190 c         1 MOL      0.374268
     10 O2          1.2570   -6.1840    1.7990 o         1 MOL     -0.576470
     11 C5          2.8870   -3.7260    2.8760 c3        1 MOL     -0.116178
     12 C6          3.7190   -3.3620    1.6200 c         1 MOL      0.680225
     13 O3          4.8230   -3.8310    1.3740 o         1 MOL     -0.676740
     14 O4          3.2150   -2.7030    0.6200 o         1 MOL     -0.676740
     15 H4          0.3910   -5.1750    4.0590 hn        1 MOL      0.310814
     16 H5          0.9520   -2.9070    2.2220 h1        1 MOL     -0.110990
     17 H6          3.2630   -4.6450    3.3230 hc        1 MOL      0.011564
     18 H7          3.0930   -2.9460    3.6030 hc        1 MOL      0.011564
     19 N2          0.8820   -4.5970    0.2780 n         1 MOL     -0.157604
     20 C7          0.6940   -5.4860   -0.8770 c3        1 MOL     -0.006540
     21 C8          1.9280   -5.5120   -1.8650 c         1 MOL      0.638024
     22 O5          2.2800   -6.5350   -2.4290 o         1 MOL     -0.589223
     23 C9         -0.6440   -5.1440   -1.6520 c3        1 MOL      0.193067
     24 C10        -1.8080   -4.5250   -0.7910 c3        1 MOL     -0.203472
     25 C11        -1.0610   -6.4850   -2.2680 c3        1 MOL     -0.316010
     26 C12        -3.0910   -4.2980   -1.5010 c3        1 MOL      0.053651
     27 H8          0.7960   -3.6030    0.1650 hn        1 MOL      0.189181
     28 H9          0.6490   -6.5130   -0.5090 h1        1 MOL      0.035980
     29 H10        -0.3040   -4.3970   -2.3700 hc        1 MOL     -0.003546
     30 H11        -1.5290   -3.5750   -0.3240 hc        1 MOL      0.046542
     31 H12        -2.0220   -5.1600    0.0720 hc        1 MOL      0.046542
     32 H13        -1.8320   -6.2480   -3.0030 hc        1 MOL      0.063998
     33 H14        -0.2890   -7.0600   -2.7590 hc        1 MOL      0.063998
     34 H15        -1.5160   -7.0670   -1.4590 hc        1 MOL      0.063998
     35 H16        -2.9940   -3.5890   -2.3300 hc        1 MOL      0.000382
     36 H17        -3.4520   -5.2120   -1.9720 hc        1 MOL      0.000382
     37 H18        -3.8030   -3.9240   -0.7630 hc        1 MOL      0.000382
     38 N3          2.6730   -4.3850   -1.9190 n         1 MOL     -0.438634
     39 C13         3.4710   -4.0020   -3.1180 c3        1 MOL      0.027215
     40 C14         4.9150   -3.4650   -2.7750 c         1 MOL      0.514022
     41 O6          5.6720   -3.1680   -3.6530 o         1 MOL     -0.568149
     42 C15         2.6630   -2.9180   -3.9800 c3        1 MOL     -0.166500
     43 C16         2.1480   -1.7290   -3.1770 c         1 MOL      0.810627
     44 O7          2.6150   -1.4160   -2.0480 o         1 MOL     -0.738937
     45 O8          1.2080   -1.0560   -3.6680 o         1 MOL     -0.738937
     46 H19         2.5440   -3.7060   -1.1870 hn        1 MOL      0.195234
     47 H20         3.5960   -4.9480   -3.6540 h1        1 MOL      0.067605
     48 H21         1.7710   -3.4320   -4.3560 hc        1 MOL      0.035204
     49 H22         3.2560   -2.5900   -4.8280 hc        1 MOL      0.035204
     50 N4          5.2440   -3.3270   -1.4790 n         1 MOL     -0.356573
     51 C17         6.6280   -3.1340   -1.1220 c3        1 MOL     -0.061034
     52 C18         7.1060   -1.7470   -1.3740 c         1 MOL      0.450959
     53 O9          8.2640   -1.4480   -1.0110 o         1 MOL     -0.644735
     54 H23         4.5930   -3.6010   -0.7550 hn        1 MOL      0.278650
     55 H24         7.3550   -3.7430   -1.6650 h1        1 MOL      0.086806
     56 H25         6.8140   -3.5210   -0.1140 h1        1 MOL      0.086806
     57 N5          6.2770   -0.7720   -1.6550 n         1 MOL     -0.076989
     58 C19         6.7300    0.5870   -2.1880 c3        1 MOL      0.014944
     59 C20         7.1150    1.5870   -1.0760 c         1 MOL      0.343265
     60 O10         7.6110    2.7230   -1.3830 o         1 MOL     -0.547706
     61 C21         5.5930    1.1790   -3.0680 c3        1 MOL     -0.146606
     62 C22         4.3100    1.5380   -2.3190 c         1 MOL      0.755630
     63 O11         4.1000    1.0800   -1.1390 o         1 MOL     -0.673468
     64 O12         3.3810    2.1100   -2.9070 o         1 MOL     -0.673468
     65 H26         5.2750   -0.8850   -1.7430 hn        1 MOL      0.050823
     66 H27         7.5190    0.4280   -2.9270 h1        1 MOL      0.092949
     67 H28         5.4650    0.5710   -3.9650 hc        1 MOL      0.048412
     68 H29         5.9130    2.1520   -3.4510 hc        1 MOL      0.048412
     69 N6          6.9780    1.3060    0.2140 n         1 MOL     -0.128854
     70 C23         7.1970    2.2060    1.3600 c3        1 MOL     -0.365344
     71 C24         6.1470    3.2110    1.6480 c         1 MOL      0.528830
     72 O13         6.4200    4.0980    2.5170 o         1 MOL     -0.610039
     73 H30         6.5620    0.4040    0.4400 hn        1 MOL      0.245730
     74 H31         8.0180    2.9170    1.2980 h1        1 MOL      0.148979
     75 H32         7.2800    1.6100    2.2560 h1        1 MOL      0.148979
     76 N7          5.0150    3.1060    0.9420 n         1 MOL     -0.036931
     77 C25         3.8990    4.0270    1.2590 c3        1 MOL     -0.024031
     78 C26         2.6340    3.1540    1.5520 c         1 MOL      0.442278
     79 O14         2.6620    1.9230    1.5370 o         1 MOL     -0.511570
     80 C27         3.6740    4.9470   -0.0220 c3        1 MOL     -0.120801
     81 C28         4.9140    5.7370   -0.3340 c3        1 MOL     -0.094130
     82 C29         4.8730    6.7630   -1.4170 c         1 MOL      0.637384
     83 N8          5.9510    7.4860   -1.6070 n         1 MOL     -0.794516
     84 O15         3.8150    7.1370   -1.9890 o         1 MOL     -0.569247
     85 H33         4.7820    2.3560    0.3040 hn        1 MOL      0.094587
     86 H34         4.0090    4.5750    2.1860 h1        1 MOL      0.048935
     87 H35         2.8510    5.6510    0.1140 hc        1 MOL      0.065531
     88 H36         3.4020    4.3700   -0.8960 hc        1 MOL      0.065531
     89 H37         5.7220    5.0790   -0.6320 hc        1 MOL      0.040646
     90 H38         5.3040    6.1420    0.5990 hc        1 MOL      0.040646
     91 H39         6.8160    7.2490   -1.1380 hn        1 MOL      0.351724
     92 H40         5.9560    8.0700   -2.4390 hn        1 MOL      0.351724
     93 N9          1.5640    3.8310    2.0560 n         1 MOL     -0.370593
     94 C30         0.3090    3.2900    2.3630 c3        1 MOL     -0.017644
     95 C31        -0.6660    3.6050    1.1770 c         1 MOL      0.494728
     96 O16        -0.9730    4.7330    0.9090 o         1 MOL     -0.575542
     97 C32        -0.2150    3.8780    3.6880 c3        1 MOL      0.407789
     98 C33        -1.6550    3.4160    3.9740 c3        1 MOL     -0.348709
     99 C34         0.5470    3.4930    5.0050 c3        1 MOL     -0.348709
    100 H41         1.6970    4.8240    2.1740 hn        1 MOL      0.254713
    101 H42         0.4050    2.2180    2.5690 h1        1 MOL      0.118907
    102 H43        -0.2160    4.9680    3.5670 hc        1 MOL     -0.074012
    103 H44        -2.3250    4.0330    3.3680 hc        1 MOL      0.064331
    104 H45        -1.7760    2.3700    3.6880 hc        1 MOL      0.064331
    105 H46        -1.8970    3.5840    5.0200 hc        1 MOL      0.064331
    106 H47         0.4940    2.4210    5.1830 hc        1 MOL      0.064331
    107 H48         1.5990    3.7750    4.8730 hc        1 MOL      0.064331
    108 H49         0.1560    4.2070    5.7330 hc        1 MOL      0.064331
    109 N10        -1.1390    2.5690    0.4810 n         1 MOL     -0.196952
    110 C35        -2.2450    2.6820   -0.4180 c3        1 MOL      0.018579
    111 C36        -3.5950    2.6860    0.3150 c         1 MOL      0.302384
    112 O17        -3.6660    2.0420    1.3350 o         1 MOL     -0.272864
    113 C37        -2.2400    1.4190   -1.3650 c3        1 MOL     -0.439684
    114 C38        -3.2320    1.5030   -2.5190 c         1 MOL      0.842020
    115 N11        -3.0030    2.3280   -3.5040 n         1 MOL     -0.832454
    116 O18        -4.3010    0.9570   -2.5120 o         1 MOL     -0.653033
    117 H50        -0.7290    1.6560    0.6590 hn        1 MOL      0.178728
    118 H51        -2.1930    3.5220   -1.1120 h1        1 MOL      0.059432
    119 H52        -2.4170    0.5400   -0.7370 hc        1 MOL      0.167773
    120 H53        -1.2730    1.2370   -1.8340 hc        1 MOL      0.167773
    121 H54        -2.1410    2.8600   -3.5710 hn        1 MOL      0.364975
    122 H55        -3.7500    2.4470   -4.1850 hn        1 MOL      0.364975
    123 N12        -4.6880    3.2290   -0.1910 n         1 MOL     -0.231462
    124 C39        -6.0230    3.0080    0.3060 c3        1 MOL     -0.005532
    125 C40        -6.5060    1.5510    0.5600 c         1 MOL      0.370142
    126 O19        -7.2300    1.2780    1.5500 o         1 MOL     -0.565293
    127 C41        -7.0320    3.7890   -0.5500 c3        1 MOL     -0.049904
    128 C42        -7.0210    3.4480   -1.9760 ca        1 MOL     -0.026688
    129 C43        -6.4190    4.3560   -2.9140 ca        1 MOL     -0.100673
    130 C44        -7.4900    2.2250   -2.5070 ca        1 MOL     -0.100673
    131 C45        -6.2380    4.0060   -4.3100 ca        1 MOL     -0.353859
    132 C46        -7.3550    1.9230   -3.8560 ca        1 MOL     -0.353859
    133 C47        -6.6980    2.7550   -4.7900 ca        1 MOL      0.466236
    134 O20        -6.5730    2.4230   -6.0900 oh        1 MOL     -0.560350
    135 H56        -4.4910    3.8860   -0.9350 hn        1 MOL      0.198484
    136 H57        -6.0550    3.3600    1.3400 h1        1 MOL      0.066949
    137 H58        -6.8810    4.8620   -0.4930 hc        1 MOL      0.042327
    138 H59        -8.0050    3.7210   -0.0580 hc        1 MOL      0.042327
    139 H60        -6.0240    5.3000   -2.5610 ha        1 MOL      0.114774
    140 H61        -7.8780    1.4750   -1.8310 ha        1 MOL      0.114774
    141 H62        -5.7380    4.7040   -4.9590 ha        1 MOL      0.160584
    142 H63        -7.7820    0.9780   -4.1710 ha        1 MOL      0.160584
    143 H64        -6.7930    1.4860   -6.1530 ho        1 MOL      0.413432
    144 N13        -6.1540    0.5530   -0.2350 n         1 MOL      0.000421
    145 C48        -6.4150   -0.8920   -0.0400 c3        1 MOL     -0.087810
    146 C49        -5.5040   -1.4620    1.1180 c         1 MOL      0.496267
    147 O21        -5.6670   -2.5640    1.5610 o         1 MOL     -0.524056
    148 C50        -6.3020   -1.6260   -1.3930 c3        1 MOL     -0.063454
    149 C51        -6.7350   -3.0260   -1.4280 c3        1 MOL     -0.147142
    150 C52        -8.2710   -3.2620   -1.5120 c         1 MOL      0.705347
    151 O22        -8.9730   -3.3210   -0.4240 o         1 MOL     -0.741641
    152 O23        -8.7290   -3.2440   -2.6270 o         1 MOL     -0.741641
    153 H65        -5.8760    0.8500   -1.1580 hn        1 MOL      0.248628
    154 H66        -7.4330   -1.0770    0.3020 h1        1 MOL      0.099495
    155 H67        -5.2780   -1.6620   -1.7710 hc        1 MOL      0.050971
    156 H68        -6.9040   -1.0670   -2.1050 hc        1 MOL      0.050971
    157 H69        -6.2460   -3.4990   -0.5840 hc        1 MOL     -0.008465
    158 H70        -6.2800   -3.5580   -2.2570 hc        1 MOL     -0.008465
    159 N14        -4.6600   -0.6650    1.7260 n         1 MOL     -0.103684
    160 C53        -3.8480   -1.0910    2.8770 c3        1 MOL     -0.066738
    161 C54        -4.4100   -0.2770    4.1050 c         1 MOL      0.488827
    162 O24        -4.5070   -0.8410    5.1520 o         1 MOL     -0.568668
    163 C55        -2.3830   -0.7270    2.6240 c3        1 MOL      0.148638
    164 C56        -1.7400   -1.6530    1.5320 c3        1 MOL     -0.131467
    165 C57        -0.4390   -1.0530    1.0460 c         1 MOL      0.862920
    166 O25         0.2060   -1.7530    0.2400 o         1 MOL     -0.707271
    167 O26        -0.0400    0.0590    1.3150 o         1 MOL     -0.707271
    168 H71        -4.4850    0.2380    1.3080 hn        1 MOL     -0.112901
    169 H72        -3.9570   -2.1440    3.1620 h1        1 MOL      0.093015
    170 H73        -1.7800   -0.8200    3.5270 hc        1 MOL     -0.034616
    171 H74        -2.2530    0.3170    2.3300 hc        1 MOL     -0.034616
    172 H75        -2.4500   -1.6750    0.7050 hc        1 MOL      0.007985
    173 H76        -1.5140   -2.6010    2.0120 hc        1 MOL      0.007985
    174 N15        -4.6940    1.0250    3.9360 n         1 MOL     -0.113077
    175 C58        -5.2160    1.9580    5.0140 c3        1 MOL     -0.342396
    176 H77        -5.7290    2.7990    4.5470 h1        1 MOL      0.118588
    177 H78        -5.9130    1.4200    5.6560 h1        1 MOL      0.118588
    178 H79        -4.3830    2.3280    5.6110 h1        1 MOL      0.118588
    179 H80        -4.6570    1.3470    2.9800 hn        1 MOL      0.144455
    180 Ca1         2.5230   -0.3480    0.2910 Ca        1 MOL      1.717653
    181 O27         2.1500   -0.6820    2.9820 oh        1 MOL     -0.974525
    182 O28         1.2090    0.9400   -1.7330 oh        1 MOL     -0.974525
    183 H81         1.3570   -1.0120    3.4090 ho        1 MOL      0.450097
    184 H82         2.0500    1.3170   -1.9780 ho        1 MOL      0.450097
    185 H83         2.5440   -0.0930    3.6220 ho        1 MOL      0.450097
    186 H84         0.9580    0.4080   -2.4770 ho        1 MOL      0.450097
    187 O29         4.7440    0.0010    2.2190 oh        1 MOL     -0.974525
    188 H85         4.2300    0.0370    3.0230 ho        1 MOL      0.450097
    189 H86         5.5080   -0.5290    2.4480 ho        1 MOL      0.450097
@<TRIPOS>BOND
     1    1    2 1   
     2    1    4 1   
     3    1    5 1   
     4    1    6 1   
     5    2    3 2   
     6    2    7 1   
     7    7    8 1   
     8    7   15 1   
     9    8    9 1   
    10    8   11 1   
    11    8   16 1   
    12    9   10 2   
    13    9   19 1   
    14   11   12 1   
    15   11   17 1   
    16   11   18 1   
    17   12   13 1   
    18   12   14 1   
    19   19   20 1   
    20   19   27 1   
    21   20   21 1   
    22   20   23 1   
    23   20   28 1   
    24   21   22 2   
    25   21   38 1   
    26   23   24 1   
    27   23   25 1   
    28   23   29 1   
    29   24   26 1   
    30   24   30 1   
    31   24   31 1   
    32   25   32 1   
    33   25   33 1   
    34   25   34 1   
    35   26   35 1   
    36   26   36 1   
    37   26   37 1   
    38   38   39 1   
    39   38   46 1   
    40   39   40 1   
    41   39   42 1   
    42   39   47 1   
    43   40   41 2   
    44   40   50 1   
    45   42   43 1   
    46   42   48 1   
    47   42   49 1   
    48   43   44 1   
    49   43   45 1   
    50   50   51 1   
    51   50   54 1   
    52   51   52 1   
    53   51   55 1   
    54   51   56 1   
    55   52   53 2   
    56   52   57 1   
    57   57   58 1   
    58   57   65 1   
    59   58   59 1   
    60   58   61 1   
    61   58   66 1   
    62   59   60 2   
    63   59   69 1   
    64   61   62 1   
    65   61   67 1   
    66   61   68 1   
    67   62   63 1   
    68   62   64 1   
    69   69   70 1   
    70   69   73 1   
    71   70   71 1   
    72   70   74 1   
    73   70   75 1   
    74   71   72 2   
    75   71   76 1   
    76   76   77 1   
    77   76   85 1   
    78   77   78 1   
    79   77   80 1   
    80   77   86 1   
    81   78   79 2   
    82   78   93 1   
    83   80   81 1   
    84   80   87 1   
    85   80   88 1   
    86   81   82 1   
    87   81   89 1   
    88   81   90 1   
    89   82   83 1   
    90   82   84 2   
    91   83   91 1   
    92   83   92 1   
    93   93   94 1   
    94   93  100 1   
    95   94   95 1   
    96   94   97 1   
    97   94  101 1   
    98   95   96 2   
    99   95  109 1   
   100   97   98 1   
   101   97   99 1   
   102   97  102 1   
   103   98  103 1   
   104   98  104 1   
   105   98  105 1   
   106   99  106 1   
   107   99  107 1   
   108   99  108 1   
   109  109  110 1   
   110  109  117 1   
   111  110  111 1   
   112  110  113 1   
   113  110  118 1   
   114  111  112 2   
   115  111  123 1   
   116  113  114 1   
   117  113  119 1   
   118  113  120 1   
   119  114  115 1   
   120  114  116 2   
   121  115  121 1   
   122  115  122 1   
   123  123  124 1   
   124  123  135 1   
   125  124  125 1   
   126  124  127 1   
   127  124  136 1   
   128  125  126 2   
   129  125  144 1   
   130  127  128 1   
   131  127  137 1   
   132  127  138 1   
   133  128  129 ar  
   134  128  130 ar  
   135  129  131 ar  
   136  129  139 1   
   137  130  132 ar  
   138  130  140 1   
   139  131  133 ar  
   140  131  141 1   
   141  132  133 ar  
   142  132  142 1   
   143  133  134 1   
   144  134  143 1   
   145  144  145 1   
   146  144  153 1   
   147  145  146 1   
   148  145  148 1   
   149  145  154 1   
   150  146  147 2   
   151  146  159 1   
   152  148  149 1   
   153  148  155 1   
   154  148  156 1   
   155  149  150 1   
   156  149  157 1   
   157  149  158 1   
   158  150  151 1   
   159  150  152 1   
   160  159  160 1   
   161  159  168 1   
   162  160  161 1   
   163  160  163 1   
   164  160  169 1   
   165  161  162 2   
   166  161  174 1   
   167  163  164 1   
   168  163  170 1   
   169  163  171 1   
   170  164  165 1   
   171  164  172 1   
   172  164  173 1   
   173  165  166 1   
   174  165  167 1   
   175  174  175 1   
   176  174  179 1   
   177  175  176 1   
   178  175  177 1   
   179  175  178 1   
   180  181  183 1   
   181  181  185 1   
   182  182  184 1   
   183  182  186 1   
   184  187  188 1   
   185  187  189 1   
@<TRIPOS>SUBSTRUCTURE
     1 MOL         1 TEMP              0 ****  ****    0 ROOT
