@<TRIPOS>MOLECULE
MOL
  179   176     1     0     0
SMALL
resp


@<TRIPOS>ATOM
      1 C1          1.9350    1.8430    5.8150 c3        1 MOL     -0.367980
      2 C2          1.2530    1.7560    4.4280 c         1 MOL      0.703594
      3 O1          1.9340    1.5500    3.3700 o         1 MOL     -0.611803
      4 H1          1.3900    2.5470    6.4430 hc        1 MOL      0.108332
      5 H2          1.9320    0.8590    6.2850 hc        1 MOL      0.108332
      6 H3          2.9620    2.1850    5.6940 hc        1 MOL      0.108332
      7 N1         -0.0660    1.9810    4.3040 n         1 MOL     -0.551751
      8 C3         -0.8530    1.9250    3.0670 c3        1 MOL      0.004797
      9 C4         -1.0900    3.3160    2.4180 c         1 MOL      0.501134
     10 O2         -1.7620    4.1560    3.0380 o         1 MOL     -0.511943
     11 C5         -2.1880    1.1150    3.2950 c3        1 MOL     -0.062740
     12 C6         -3.0060    0.7170    2.0490 c         1 MOL      0.703951
     13 O3         -4.2030    0.3670    2.2790 o         1 MOL     -0.737269
     14 O4         -2.4200    0.8140    0.9790 o         1 MOL     -0.737269
     15 H4         -0.5640    2.0410    5.1870 hn        1 MOL      0.307181
     16 H5         -0.2740    1.2550    2.4210 h1        1 MOL      0.072236
     17 H6         -2.8180    1.6160    4.0350 hc        1 MOL      0.028675
     18 H7         -1.8840    0.2110    3.8300 hc        1 MOL      0.028675
     19 N2         -0.5590    3.5350    1.1910 n         1 MOL     -0.132699
     20 C7         -0.5370    4.8780    0.6500 c3        1 MOL     -0.081231
     21 C8         -1.8410    5.2610   -0.0240 c         1 MOL      0.321499
     22 O5         -2.4810    6.2540    0.3430 o         1 MOL     -0.539651
     23 C9          0.6170    5.0620   -0.3710 c3        1 MOL     -0.169761
     24 C10         0.9260    6.6170   -0.2940 c3        1 MOL      0.099935
     25 C11         1.9780    7.1350   -1.2990 c3        1 MOL     -0.306994
     26 C12         3.3000    6.3090   -1.4520 c3        1 MOL      0.220625
     27 N3          4.1200    6.8980   -2.5280 n4        1 MOL     -0.511647
     28 H8         -0.1100    2.8060    0.6510 hn        1 MOL      0.091938
     29 H9         -0.4640    5.6030    1.4560 h1        1 MOL      0.102379
     30 H10         0.3190    4.8730   -1.4010 hc        1 MOL      0.074820
     31 H11         1.5740    4.5990   -0.1090 hc        1 MOL      0.074820
     32 H12         1.1550    6.9430    0.7240 hc        1 MOL      0.038028
     33 H13        -0.0050    7.1460   -0.4880 hc        1 MOL      0.038028
     34 H14         2.1920    8.1430   -0.9380 hc        1 MOL      0.091272
     35 H15         1.5320    7.1700   -2.2860 hc        1 MOL      0.091272
     36 H16         3.1260    5.2490   -1.6890 hx        1 MOL      0.068364
     37 H17         3.9110    6.2980   -0.5510 hx        1 MOL      0.068364
     38 H18         5.0330    6.4850   -2.4570 hn        1 MOL      0.360711
     39 H19         3.6460    6.7630   -3.4040 hn        1 MOL      0.360711
     40 H20         4.3130    7.8830   -2.3840 hn        1 MOL      0.360711
     41 N4         -2.4740    4.3910   -0.7620 n         1 MOL     -0.098534
     42 C13        -3.7170    4.6300   -1.4350 c3        1 MOL      0.002538
     43 C14        -4.9230    4.0140   -0.7610 c         1 MOL      0.452064
     44 O6         -6.0690    4.1550   -1.1870 o         1 MOL     -0.534914
     45 C15        -3.6270    4.0470   -2.8550 c3        1 MOL     -0.186623
     46 C16        -2.9590    2.6400   -3.0760 c         1 MOL      0.702174
     47 O7         -2.8030    1.8810   -2.0720 o         1 MOL     -0.679129
     48 O8         -2.4710    2.3950   -4.1940 o         1 MOL     -0.679129
     49 H21        -1.9250    3.5760   -0.9830 hn        1 MOL      0.213000
     50 H22        -3.8600    5.7110   -1.4720 h1        1 MOL      0.098387
     51 H23        -2.9660    4.7410   -3.3870 hc        1 MOL      0.041053
     52 H24        -4.5990    4.1680   -3.3200 hc        1 MOL      0.041053
     53 N5         -4.6580    3.3070    0.3630 n         1 MOL     -0.254736
     54 C17        -5.7510    2.8360    1.3210 c3        1 MOL     -0.117859
     55 C18        -6.5000    1.5580    0.8110 c         1 MOL      0.570902
     56 O9         -7.6020    1.3170    1.2230 o         1 MOL     -0.606517
     57 H25        -3.7270    3.3520    0.7550 hn        1 MOL      0.238659
     58 H26        -6.4310    3.6490    1.6060 h1        1 MOL      0.093775
     59 H27        -5.2960    2.5160    2.2570 h1        1 MOL      0.093775
     60 N6         -5.9380    0.8140   -0.0870 n         1 MOL     -0.136722
     61 C19        -6.5830   -0.2880   -0.7900 c3        1 MOL     -0.088813
     62 C20        -6.5510   -1.6680   -0.0090 c         1 MOL      0.473171
     63 O10        -6.8560   -2.7180   -0.6130 o         1 MOL     -0.550115
     64 C21        -5.9670   -0.3390   -2.2340 c3        1 MOL     -0.249033
     65 C22        -4.6710   -1.0650   -2.4150 c         1 MOL      0.705200
     66 N7         -4.5090   -1.6920   -3.5470 n         1 MOL     -0.714338
     67 O11        -3.7970   -1.1090   -1.5460 o         1 MOL     -0.634045
     68 H28        -4.9240    0.8610   -0.0830 hn        1 MOL      0.030511
     69 H29        -7.6390   -0.0230   -0.9040 h1        1 MOL      0.136053
     70 H30        -5.9160    0.6800   -2.6240 hc        1 MOL      0.099488
     71 H31        -6.7200   -0.8060   -2.8770 hc        1 MOL      0.099488
     72 H32        -5.2180   -1.6570   -4.2580 hn        1 MOL      0.332796
     73 H33        -3.5630   -2.0340   -3.6650 hn        1 MOL      0.332796
     74 N8         -6.1990   -1.6340    1.2650 n         1 MOL     -0.338371
     75 C23        -6.2090   -2.8100    2.1240 c3        1 MOL     -0.228694
     76 C24        -4.9580   -3.7310    2.2480 c         1 MOL      0.507895
     77 O12        -4.9350   -4.6790    3.0430 o         1 MOL     -0.536895
     78 H34        -5.7840   -0.7600    1.5750 hn        1 MOL      0.386160
     79 H35        -7.0230   -3.4340    1.7500 h1        1 MOL      0.136073
     80 H36        -6.5240   -2.4830    3.1150 h1        1 MOL      0.136073
     81 N9         -3.9060   -3.4860    1.3900 n         1 MOL     -0.281609
     82 C25        -2.6250   -4.1030    1.5970 c3        1 MOL      0.028345
     83 C26        -1.4390   -3.1360    1.3620 c         1 MOL      0.579007
     84 O13        -1.6200   -2.1240    0.5990 o         1 MOL     -0.673102
     85 C27        -2.5760   -5.3630    0.6820 c3        1 MOL     -0.169202
     86 C28        -2.7300   -4.9940   -0.7630 ca        1 MOL      0.055937
     87 C29        -1.7140   -4.5060   -1.5490 ca        1 MOL     -0.100889
     88 C30        -3.9390   -5.3490   -1.4380 ca        1 MOL     -0.100889
     89 C31        -1.8640   -4.1820   -2.8810 ca        1 MOL     -0.321338
     90 C32        -4.0880   -5.1440   -2.8560 ca        1 MOL     -0.321338
     91 C33        -3.0870   -4.4560   -3.5170 ca        1 MOL      0.384611
     92 O14        -3.1250   -4.0130   -4.7890 oh        1 MOL     -0.567443
     93 H37        -3.9460   -2.6900    0.7670 hn        1 MOL      0.299887
     94 H38        -2.5220   -4.3880    2.6440 h1        1 MOL      0.062756
     95 H39        -3.3780   -6.0410    0.9870 hc        1 MOL      0.072398
     96 H40        -1.6930   -5.9900    0.7880 hc        1 MOL      0.072398
     97 H41        -0.7130   -4.3860   -1.1520 ha        1 MOL      0.142440
     98 H42        -4.7260   -5.7450   -0.8110 ha        1 MOL      0.142440
     99 H43        -1.0450   -3.8130   -3.4830 ha        1 MOL      0.149498
    100 H44        -4.9410   -5.3190   -3.4910 ha        1 MOL      0.149498
    101 H45        -4.0030   -4.1150   -5.1740 ho        1 MOL      0.413100
    102 N10        -0.3210   -3.3950    1.9780 n         1 MOL     -0.497215
    103 C34         1.0080   -2.6580    1.8880 c3        1 MOL      0.291503
    104 C35         1.7340   -3.4120    0.7450 c         1 MOL      0.379504
    105 O15         1.4430   -4.5780    0.4660 o         1 MOL     -0.559792
    106 C36         1.7320   -2.8500    3.2530 c3        1 MOL     -0.090935
    107 C37         0.7800   -2.8870    4.5140 c3        1 MOL      0.132436
    108 C38         2.9220   -1.9130    3.3280 c3        1 MOL     -0.417971
    109 C39        -0.1960   -1.7050    4.5630 c3        1 MOL     -0.376585
    110 H46        -0.3370   -4.1780    2.6100 hn        1 MOL      0.300328
    111 H47         0.8390   -1.6060    1.6650 h1        1 MOL      0.080529
    112 H48         2.1670   -3.8360    3.1170 hc        1 MOL      0.033997
    113 H49         1.4100   -2.8630    5.4040 hc        1 MOL      0.002560
    114 H50         0.3550   -3.8850    4.5770 hc        1 MOL      0.002560
    115 H51         3.6910   -2.1680    2.5970 hc        1 MOL      0.104494
    116 H52         2.6060   -0.8690    3.2160 hc        1 MOL      0.104494
    117 H53         3.4200   -1.8540    4.2990 hc        1 MOL      0.104494
    118 H54        -0.5530   -1.4680    5.5690 hc        1 MOL      0.101001
    119 H55         0.4640   -0.8870    4.2870 hc        1 MOL      0.101001
    120 H56        -1.0150   -1.7220    3.8440 hc        1 MOL      0.101001
    121 N11         2.7700   -2.7930    0.2130 n         1 MOL     -0.094151
    122 C40         3.8230   -3.3380   -0.7140 c3        1 MOL      0.011015
    123 C41         5.2520   -3.0120   -0.3050 c         1 MOL      0.346178
    124 O16         5.4610   -2.2910    0.7020 o         1 MOL     -0.372968
    125 C42         3.5440   -2.7510   -2.1110 c3        1 MOL     -0.511618
    126 O17         3.7420   -1.3160   -2.2070 oh        1 MOL     -0.301857
    127 H57         2.8760   -1.8320    0.4890 hn        1 MOL      0.276646
    128 H58         3.7180   -4.4160   -0.8290 h1        1 MOL      0.111942
    129 H59         2.5560   -3.0520   -2.4680 h1        1 MOL      0.201735
    130 H60         4.2510   -3.2960   -2.7440 h1        1 MOL      0.201735
    131 H61         3.4780   -1.0150   -3.0850 ho        1 MOL      0.347750
    132 N12         6.2480   -3.4860   -0.9970 n         1 MOL     -0.342115
    133 C43         7.6510   -3.1380   -0.8070 c3        1 MOL      0.075845
    134 C44         8.0450   -1.6560   -1.1520 c         1 MOL      0.473577
    135 O18         9.0090   -1.1400   -0.5710 o         1 MOL     -0.500381
    136 C45         8.5890   -4.0590   -1.6150 c3        1 MOL     -0.410520
    137 H62         6.0410   -4.0690   -1.7980 hn        1 MOL      0.290737
    138 H63         7.9560   -3.3390    0.2170 h1        1 MOL      0.115501
    139 H64         8.2700   -5.0760   -1.3850 hc        1 MOL      0.125983
    140 H65         8.5050   -3.9900   -2.7060 hc        1 MOL      0.125983
    141 H66         9.6260   -3.8880   -1.3390 hc        1 MOL      0.125983
    142 N13         7.4710   -1.0410   -2.1650 n         1 MOL     -0.376951
    143 C46         7.5560    0.4350   -2.2940 c3        1 MOL      0.135144
    144 C47         6.8910    1.2760   -1.2160 c         1 MOL      0.332901
    145 O19         7.3420    2.3570   -0.7680 o         1 MOL     -0.491409
    146 C48         6.9800    0.7920   -3.6220 c3        1 MOL     -0.222121
    147 H67         6.8660   -1.5370   -2.8000 hn        1 MOL      0.248886
    148 H68         8.6070    0.6890   -2.2630 h1        1 MOL      0.089831
    149 H69         7.0980    1.8680   -3.7450 hc        1 MOL      0.060835
    150 H70         7.3760    0.2610   -4.4870 hc        1 MOL      0.060835
    151 H71         5.9090    0.6350   -3.6270 hc        1 MOL      0.060835
    152 N14         5.7380    0.7390   -0.7320 n         1 MOL     -0.079333
    153 C49         5.0970    1.3000    0.4950 c3        1 MOL     -0.080397
    154 C50         5.8060    1.0700    1.7910 c         1 MOL      0.450784
    155 O20         5.8680    1.8350    2.7410 o         1 MOL     -0.543781
    156 C51         3.6140    0.8410    0.5440 c3        1 MOL      0.026521
    157 C52         2.7950    1.5550   -0.5800 c3        1 MOL      0.139425
    158 C53         1.3580    1.0680   -0.6100 c         1 MOL      0.844870
    159 O21         0.4490    1.7490   -1.1790 o         1 MOL     -0.820660
    160 O22         1.0630   -0.0860   -0.1440 o         1 MOL     -0.820660
    161 H72         5.1980    0.0110   -1.1720 hn        1 MOL      0.041932
    162 H73         5.0360    2.3810    0.4170 h1        1 MOL      0.047559
    163 H74         3.2670    1.1670    1.5200 hc        1 MOL      0.025194
    164 H75         3.4630   -0.2340    0.3960 hc        1 MOL      0.025194
    165 H76         3.2080    1.2570   -1.5480 hc        1 MOL     -0.091061
    166 H77         2.8080    2.6520   -0.6020 hc        1 MOL     -0.091061
    167 N15         6.6090    0.0080    1.8140 n         1 MOL      0.000180
    168 C54         7.6200   -0.2660    2.8520 c3        1 MOL     -0.346343
    169 H78         8.5830    0.1340    2.5350 h1        1 MOL      0.126595
    170 H79         7.3200    0.2070    3.7860 h1        1 MOL      0.126595
    171 H80         7.7060   -1.3430    3.0000 h1        1 MOL      0.126595
    172 H81         6.5480   -0.6510    1.0450 hn        1 MOL      0.030816
    173 Ca1        -1.3900   -0.1730   -1.1410 Ca        1 MOL      1.775693
    174 O23         0.6730   -1.3670   -2.6840 oh        1 MOL     -0.835325
    175 H82         0.9040   -1.9910   -3.3720 ho        1 MOL      0.385426
    176 H83         1.0530   -0.5370   -2.9670 ho        1 MOL      0.385426
    177 O24        -1.6030   -0.0400   -3.8610 oh        1 MOL     -0.835325
    178 H84        -1.2910   -0.4660   -4.6610 ho        1 MOL      0.385426
    179 H85        -2.0240    0.7640   -4.1780 ho        1 MOL      0.385426
@<TRIPOS>BOND
     1    1    2 1   
     2    1    4 1   
     3    1    5 1   
     4    1    6 1   
     5    2    3 2   
     6    2    7 1   
     7    7    8 1   
     8    7   15 1   
     9    8    9 1   
    10    8   11 1   
    11    8   16 1   
    12    9   10 2   
    13    9   19 1   
    14   11   12 1   
    15   11   17 1   
    16   11   18 1   
    17   12   13 1   
    18   12   14 1   
    19   19   20 1   
    20   19   28 1   
    21   20   21 1   
    22   20   23 1   
    23   20   29 1   
    24   21   22 2   
    25   21   41 1   
    26   23   24 1   
    27   23   30 1   
    28   23   31 1   
    29   24   25 1   
    30   24   32 1   
    31   24   33 1   
    32   25   26 1   
    33   25   34 1   
    34   25   35 1   
    35   26   27 1   
    36   26   36 1   
    37   26   37 1   
    38   27   38 1   
    39   27   39 1   
    40   27   40 1   
    41   41   42 1   
    42   41   49 1   
    43   42   43 1   
    44   42   45 1   
    45   42   50 1   
    46   43   44 2   
    47   43   53 1   
    48   45   46 1   
    49   45   51 1   
    50   45   52 1   
    51   46   47 1   
    52   46   48 1   
    53   53   54 1   
    54   53   57 1   
    55   54   55 1   
    56   54   58 1   
    57   54   59 1   
    58   55   56 2   
    59   55   60 1   
    60   60   61 1   
    61   60   68 1   
    62   61   62 1   
    63   61   64 1   
    64   61   69 1   
    65   62   63 2   
    66   62   74 1   
    67   64   65 1   
    68   64   70 1   
    69   64   71 1   
    70   65   66 1   
    71   65   67 2   
    72   66   72 1   
    73   66   73 1   
    74   74   75 1   
    75   74   78 1   
    76   75   76 1   
    77   75   79 1   
    78   75   80 1   
    79   76   77 2   
    80   76   81 1   
    81   81   82 1   
    82   81   93 1   
    83   82   83 1   
    84   82   85 1   
    85   82   94 1   
    86   83   84 2   
    87   83  102 1   
    88   85   86 1   
    89   85   95 1   
    90   85   96 1   
    91   86   87 ar  
    92   86   88 ar  
    93   87   89 ar  
    94   87   97 1   
    95   88   90 ar  
    96   88   98 1   
    97   89   91 ar  
    98   89   99 1   
    99   90   91 ar  
   100   90  100 1   
   101   91   92 1   
   102   92  101 1   
   103  102  103 1   
   104  102  110 1   
   105  103  104 1   
   106  103  106 1   
   107  103  111 1   
   108  104  105 2   
   109  104  121 1   
   110  106  107 1   
   111  106  108 1   
   112  106  112 1   
   113  107  109 1   
   114  107  113 1   
   115  107  114 1   
   116  108  115 1   
   117  108  116 1   
   118  108  117 1   
   119  109  118 1   
   120  109  119 1   
   121  109  120 1   
   122  121  122 1   
   123  121  127 1   
   124  122  123 1   
   125  122  125 1   
   126  122  128 1   
   127  123  124 2   
   128  123  132 1   
   129  125  126 1   
   130  125  129 1   
   131  125  130 1   
   132  126  131 1   
   133  132  133 1   
   134  132  137 1   
   135  133  134 1   
   136  133  136 1   
   137  133  138 1   
   138  134  135 2   
   139  134  142 1   
   140  136  139 1   
   141  136  140 1   
   142  136  141 1   
   143  142  143 1   
   144  142  147 1   
   145  143  144 1   
   146  143  146 1   
   147  143  148 1   
   148  144  145 2   
   149  144  152 1   
   150  146  149 1   
   151  146  150 1   
   152  146  151 1   
   153  152  153 1   
   154  152  161 1   
   155  153  154 1   
   156  153  156 1   
   157  153  162 1   
   158  154  155 2   
   159  154  167 1   
   160  156  157 1   
   161  156  163 1   
   162  156  164 1   
   163  157  158 1   
   164  157  165 1   
   165  157  166 1   
   166  158  159 1   
   167  158  160 1   
   168  167  168 1   
   169  167  172 1   
   170  168  169 1   
   171  168  170 1   
   172  168  171 1   
   173  174  175 1   
   174  174  176 1   
   175  177  178 1   
   176  177  179 1   
@<TRIPOS>SUBSTRUCTURE
     1 MOL         1 TEMP              0 ****  ****    0 ROOT
