@<TRIPOS>MOLECULE
MOL
  175   173     1     0     0
SMALL
resp


@<TRIPOS>ATOM
      1 C1          0.5880    3.3590    5.6350 c3        1 MOL     -0.403195
      2 C2          0.0000    3.5200    4.1830 c         1 MOL      0.689094
      3 O1          0.7480    3.5070    3.2180 o         1 MOL     -0.518510
      4 H1          0.1940    4.1480    6.2760 hc        1 MOL      0.100615
      5 H2          0.3010    2.3880    6.0380 hc        1 MOL      0.100615
      6 H3          1.6750    3.4310    5.5970 hc        1 MOL      0.100615
      7 N1         -1.3200    3.5020    4.0460 n         1 MOL     -0.621413
      8 C3         -2.0020    3.2910    2.7750 c3        1 MOL      0.083712
      9 C4         -2.2100    4.6450    2.0260 c         1 MOL      0.727014
     10 O2         -2.2140    5.6980    2.6190 o         1 MOL     -0.577866
     11 C5         -3.3770    2.6750    3.0280 c3        1 MOL     -0.481714
     12 C6         -4.0990    2.0420    1.8370 c         1 MOL      0.855045
     13 O3         -3.5450    2.0490    0.6960 o         1 MOL     -0.704815
     14 O4         -5.2130    1.4840    1.9740 o         1 MOL     -0.704815
     15 H4         -1.8910    3.4190    4.8790 hn        1 MOL      0.328847
     16 H5         -1.4080    2.5870    2.2000 h1        1 MOL      0.096278
     17 H6         -3.8980    3.5550    3.3950 hc        1 MOL      0.107774
     18 H7         -3.3050    1.8800    3.7760 hc        1 MOL      0.107774
     19 N2         -2.3440    4.5160    0.7150 n         1 MOL     -0.629095
     20 C7         -2.6780    5.6170   -0.1590 c3        1 MOL      0.148053
     21 C8         -3.6020    5.1520   -1.3300 c         1 MOL      0.605154
     22 O5         -3.8960    6.0870   -2.0840 o         1 MOL     -0.601001
     23 C9         -1.3560    6.2460   -0.6760 c3        1 MOL     -0.192838
     24 H8         -2.3260    3.5990    0.3040 hn        1 MOL      0.356439
     25 H9         -3.1260    6.4000    0.4580 h1        1 MOL      0.037069
     26 H10        -0.8830    5.7420   -1.5250 hc        1 MOL      0.053172
     27 H11        -1.5700    7.2170   -1.1320 hc        1 MOL      0.053172
     28 H12        -0.7160    6.3440    0.1930 hc        1 MOL      0.053172
     29 N3         -4.1200    3.9620   -1.4260 n         1 MOL     -0.606791
     30 C10        -5.0000    3.5520   -2.4990 c3        1 MOL      0.256884
     31 C11        -6.1740    2.6390   -2.0410 c         1 MOL      0.367937
     32 O6         -7.0290    2.4150   -2.7940 o         1 MOL     -0.554858
     33 C12        -4.1670    2.7900   -3.5200 c3        1 MOL     -0.273376
     34 C13        -3.4240    1.6020   -2.9150 c         1 MOL      0.822876
     35 O7         -3.8010    1.0070   -1.9580 o         1 MOL     -0.764983
     36 O8         -2.3350    1.2220   -3.3050 o         1 MOL     -0.764983
     37 H13        -3.8520    3.2030   -0.8030 hn        1 MOL      0.363937
     38 H14        -5.3770    4.4710   -2.9450 h1        1 MOL      0.039338
     39 H15        -3.4830    3.5350   -3.9400 hc        1 MOL      0.060088
     40 H16        -4.8100    2.4800   -4.3370 hc        1 MOL      0.060088
     41 N4         -6.1600    2.1390   -0.8600 n         1 MOL     -0.151224
     42 C14        -7.3130    1.3910   -0.2420 c3        1 MOL     -0.316291
     43 C15        -7.4000   -0.1000   -0.5480 c         1 MOL      0.578915
     44 O9         -8.3710   -0.7490   -0.3680 o         1 MOL     -0.612519
     45 H17        -5.2660    2.1050   -0.3940 hn        1 MOL      0.064022
     46 H18        -8.2380    1.7710   -0.6720 h1        1 MOL      0.147677
     47 H19        -7.4010    1.6690    0.8070 h1        1 MOL      0.147677
     48 N5         -6.3320   -0.6570   -1.1410 n         1 MOL     -0.230639
     49 C16        -6.5060   -1.9460   -1.8740 c3        1 MOL     -0.020379
     50 C17        -6.4200   -3.1610   -0.9290 c         1 MOL      0.441641
     51 O10        -6.4490   -4.2800   -1.3520 o         1 MOL     -0.505478
     52 C18        -5.4230   -2.0670   -3.0380 c3        1 MOL     -0.312169
     53 C19        -3.9010   -1.9880   -2.5270 c         1 MOL      0.639960
     54 N6         -2.9500   -2.1990   -3.3790 n         1 MOL     -0.610718
     55 O11        -3.5870   -1.8730   -1.3650 o         1 MOL     -0.455260
     56 H20        -5.4400   -0.2040   -1.2600 hn        1 MOL      0.293050
     57 H21        -7.5180   -1.9320   -2.2680 h1        1 MOL      0.118386
     58 H22        -5.6120   -1.2110   -3.6800 hc        1 MOL      0.088125
     59 H23        -5.6870   -3.0300   -3.4710 hc        1 MOL      0.088125
     60 H24        -3.1710   -2.3670   -4.3530 hn        1 MOL      0.313873
     61 H25        -1.9630   -2.0660   -3.1730 hn        1 MOL      0.313873
     62 N7         -6.3610   -2.9360    0.4250 n         1 MOL     -0.213158
     63 C20        -6.1630   -3.9260    1.4920 c3        1 MOL     -0.340173
     64 C21        -4.7980   -4.5670    1.6320 c         1 MOL      0.600424
     65 O12        -4.6710   -5.5250    2.4160 o         1 MOL     -0.603785
     66 H26        -6.2860   -1.9590    0.6460 hn        1 MOL      0.210001
     67 H27        -6.8020   -4.7870    1.2770 h1        1 MOL      0.139180
     68 H28        -6.4610   -3.4320    2.4170 h1        1 MOL      0.139180
     69 N8         -3.7500   -4.0580    1.0110 n         1 MOL     -0.240979
     70 C22        -2.3760   -4.6060    1.0990 c3        1 MOL     -0.258109
     71 C23        -1.3370   -3.4840    1.2110 c         1 MOL      0.707216
     72 O13        -1.4840   -2.4710    0.5880 o         1 MOL     -0.600677
     73 C24        -2.0360   -5.4290   -0.0800 c3        1 MOL      0.642790
     74 C25        -2.5850   -6.8600   -0.0430 c3        1 MOL     -0.482720
     75 O14        -2.5050   -4.7460   -1.2290 oh        1 MOL     -0.607455
     76 H29        -3.8780   -3.2080    0.4880 hn        1 MOL      0.191879
     77 H30        -2.2770   -5.2710    1.9650 h1        1 MOL      0.093201
     78 H31        -0.9500   -5.5180   -0.1320 h1        1 MOL     -0.063656
     79 H32        -2.4870   -3.8180   -0.9920 ho        1 MOL      0.283606
     80 H33        -3.6720   -6.8530   -0.0240 hc        1 MOL      0.111774
     81 H34        -2.2770   -7.3920   -0.9350 hc        1 MOL      0.111774
     82 H35        -2.2340   -7.3960    0.8420 hc        1 MOL      0.111774
     83 N9         -0.2350   -3.8170    1.9570 n         1 MOL     -0.647449
     84 C26         0.9870   -2.9330    1.9150 c3        1 MOL     -0.007561
     85 C27         1.5670   -3.0940    0.5460 c         1 MOL      0.567895
     86 O15         1.8340   -4.1200   -0.0290 o         1 MOL     -0.587053
     87 C28         1.9610   -3.2170    3.1450 c3        1 MOL      0.134324
     88 C29         1.3240   -2.7690    4.4730 c3        1 MOL      0.026637
     89 C30         3.2530   -2.5140    2.8300 c3        1 MOL     -0.213811
     90 C31         2.3320   -2.9700    5.6360 c3        1 MOL     -0.222323
     91 H36        -0.2060   -4.7700    2.2970 hn        1 MOL      0.314382
     92 H37         0.6350   -1.9180    2.1020 h1        1 MOL     -0.018452
     93 H38         2.1750   -4.2840    3.1730 hc        1 MOL      0.006390
     94 H39         0.4070   -3.2880    4.7340 hc        1 MOL      0.026303
     95 H40         1.0860   -1.7030    4.4690 hc        1 MOL      0.026303
     96 H41         3.7030   -2.7900    1.8770 hc        1 MOL      0.036017
     97 H42         3.0630   -1.4390    2.8010 hc        1 MOL      0.036017
     98 H43         3.9140   -2.6840    3.6790 hc        1 MOL      0.036017
     99 H44         3.1360   -2.2390    5.7460 hc        1 MOL      0.052338
    100 H45         1.7770   -2.8160    6.5580 hc        1 MOL      0.052338
    101 H46         2.7220   -3.9930    5.5400 hc        1 MOL      0.052338
    102 N10         1.7540   -1.9370   -0.1770 n         1 MOL     -0.259991
    103 C32         2.5500   -1.8750   -1.4250 c3        1 MOL      0.071209
    104 C33         4.0230   -1.4230   -1.0160 c         1 MOL      0.431721
    105 O16         4.1540   -0.9280    0.1190 o         1 MOL     -0.352620
    106 C34         2.0450   -0.8870   -2.4720 c3        1 MOL     -0.317741
    107 C35         0.5970   -1.2220   -2.7550 c         1 MOL      0.714459
    108 O17        -0.2620   -0.9170   -1.8750 o         1 MOL     -0.672791
    109 O18         0.2730   -1.8520   -3.8250 o         1 MOL     -0.672791
    110 H47         1.3990   -1.0820    0.2420 hn        1 MOL      0.335366
    111 H48         2.5740   -2.8510   -1.9130 h1        1 MOL      0.078356
    112 H49         2.6550   -0.9810   -3.3680 hc        1 MOL      0.077502
    113 H50         2.0480    0.0950   -1.9990 hc        1 MOL      0.077502
    114 N11         5.0220   -1.5130   -1.8520 n         1 MOL     -0.703352
    115 C36         6.4320   -1.3190   -1.4490 c3        1 MOL      0.406998
    116 C37         6.8160    0.1520   -1.2470 c         1 MOL      0.297090
    117 O19         7.5390    0.4990   -0.3220 o         1 MOL     -0.476394
    118 C38         7.3220   -2.1930   -2.4070 c3        1 MOL     -0.257483
    119 C39         8.7580   -1.9150   -2.0440 ca        1 MOL      0.201642
    120 C40         9.3070   -2.5370   -0.8910 ca        1 MOL     -0.321811
    121 C41         9.4650   -0.9830   -2.8100 ca        1 MOL     -0.321811
    122 C42        10.5650   -2.0980   -0.3630 ca        1 MOL      0.029900
    123 C43        10.6870   -0.5670   -2.2900 ca        1 MOL      0.029900
    124 C44        11.2340   -1.0770   -1.1350 ca        1 MOL     -0.241367
    125 H51         4.7860   -1.9140   -2.7550 hn        1 MOL      0.342973
    126 H52         6.5750   -1.7060   -0.4430 h1        1 MOL      0.052563
    127 H53         7.2100   -2.0640   -3.4820 hc        1 MOL      0.086123
    128 H54         7.0860   -3.2430   -2.2140 hc        1 MOL      0.086123
    129 H55         8.7460   -3.2650   -0.3290 ha        1 MOL      0.157354
    130 H56         9.0280   -0.4790   -3.6650 ha        1 MOL      0.157354
    131 H57        10.9750   -2.5800    0.5130 ha        1 MOL      0.086132
    132 H58        11.3060    0.1670   -2.7780 ha        1 MOL      0.086132
    133 H59        12.1590   -0.7170   -0.7140 ha        1 MOL      0.124426
    134 N12         6.1450    1.1560   -1.8990 n         1 MOL     -0.067698
    135 C45         6.2470    2.5620   -1.5930 c3        1 MOL      0.090112
    136 C46         5.6670    2.9050   -0.1800 c         1 MOL      0.188246
    137 O20         5.9450    3.9530    0.3560 o         1 MOL     -0.491115
    138 C47         5.5440    3.3870   -2.6560 c3        1 MOL      0.058919
    139 C48         5.7060    2.5100   -3.8800 c3        1 MOL     -0.163256
    140 C49         5.5730    1.1200   -3.2130 c3        1 MOL     -0.025228
    141 H60         7.2810    2.8990   -1.6030 h1        1 MOL      0.041450
    142 H61         4.4820    3.4650   -2.4290 hc        1 MOL      0.020695
    143 H62         5.9890    4.3740   -2.7250 hc        1 MOL      0.020695
    144 H63         4.9130    2.6740   -4.6100 hc        1 MOL      0.056987
    145 H64         6.7200    2.6250   -4.2520 hc        1 MOL      0.056987
    146 H65         4.5070    0.9750   -3.0150 h1        1 MOL      0.041480
    147 H66         6.0190    0.3670   -3.8620 h1        1 MOL      0.041480
    148 N13         4.7520    2.0610    0.3080 n         1 MOL      0.048431
    149 C50         4.1010    2.1950    1.5710 c3        1 MOL     -0.295178
    150 C51         4.9280    1.4990    2.6770 c         1 MOL      0.538998
    151 O21         4.8100    1.7990    3.8490 o         1 MOL     -0.562694
    152 C52         2.6540    1.6590    1.5090 c3        1 MOL      0.098469
    153 C53         1.7420    2.3410    0.4340 c3        1 MOL     -0.312491
    154 C54         0.4220    1.5830    0.1650 c         1 MOL      0.498089
    155 O22        -0.4940    2.0400   -0.5580 o         1 MOL     -0.639231
    156 O23         0.2210    0.5000    0.7570 o         1 MOL     -0.639231
    157 H67         4.5240    1.3210   -0.3380 hn        1 MOL      0.123645
    158 H68         4.0160    3.2720    1.7390 h1        1 MOL      0.144852
    159 H69         2.2540    1.8540    2.5080 hc        1 MOL      0.039515
    160 H70         2.6240    0.5980    1.2380 hc        1 MOL      0.039515
    161 H71         2.1910    2.2360   -0.5560 hc        1 MOL      0.117733
    162 H72         1.5790    3.3850    0.6910 hc        1 MOL      0.117733
    163 N14         5.6910    0.4620    2.2930 n         1 MOL     -0.150232
    164 C55         6.6160   -0.2040    3.3280 c3        1 MOL     -0.140711
    165 H73         6.3590    0.1500    4.3250 h1        1 MOL      0.067000
    166 H74         6.4920   -1.2870    3.2840 h1        1 MOL      0.067000
    167 H75         7.6520    0.0520    3.1080 h1        1 MOL      0.067000
    168 H76         5.6780    0.0790    1.3530 hn        1 MOL      0.104624
    169 Ca1        -2.0570    0.0560   -0.4010 Ca        1 MOL      1.662745
    170 O24        -3.9740   -0.8540    1.3170 oh        1 MOL     -0.722541
    171 H77        -4.7460   -0.2890    1.4110 ho        1 MOL      0.362294
    172 H78        -3.6780   -1.0040    2.2070 ho        1 MOL      0.362294
    173 O25        -1.5570   -0.1790    2.7220 oh        1 MOL     -0.722541
    174 H79        -0.7730    0.1140    2.2590 ho        1 MOL      0.362294
    175 H80        -1.4630    0.1670    3.6040 ho        1 MOL      0.362294
@<TRIPOS>BOND
     1    1    2 1   
     2    1    4 1   
     3    1    5 1   
     4    1    6 1   
     5    2    3 2   
     6    2    7 1   
     7    7    8 1   
     8    7   15 1   
     9    8    9 1   
    10    8   11 1   
    11    8   16 1   
    12    9   10 2   
    13    9   19 1   
    14   11   12 1   
    15   11   17 1   
    16   11   18 1   
    17   12   13 1   
    18   12   14 1   
    19   19   20 1   
    20   19   24 1   
    21   20   21 1   
    22   20   23 1   
    23   20   25 1   
    24   21   22 2   
    25   21   29 1   
    26   23   26 1   
    27   23   27 1   
    28   23   28 1   
    29   29   30 1   
    30   29   37 1   
    31   30   31 1   
    32   30   33 1   
    33   30   38 1   
    34   31   32 2   
    35   31   41 1   
    36   33   34 1   
    37   33   39 1   
    38   33   40 1   
    39   34   35 1   
    40   34   36 1   
    41   41   42 1   
    42   41   45 1   
    43   42   43 1   
    44   42   46 1   
    45   42   47 1   
    46   43   44 2   
    47   43   48 1   
    48   48   49 1   
    49   48   56 1   
    50   49   50 1   
    51   49   52 1   
    52   49   57 1   
    53   50   51 2   
    54   50   62 1   
    55   52   53 1   
    56   52   58 1   
    57   52   59 1   
    58   53   54 1   
    59   53   55 2   
    60   54   60 1   
    61   54   61 1   
    62   62   63 1   
    63   62   66 1   
    64   63   64 1   
    65   63   67 1   
    66   63   68 1   
    67   64   65 2   
    68   64   69 1   
    69   69   70 1   
    70   69   76 1   
    71   70   71 1   
    72   70   73 1   
    73   70   77 1   
    74   71   72 2   
    75   71   83 1   
    76   73   74 1   
    77   73   75 1   
    78   73   78 1   
    79   74   80 1   
    80   74   81 1   
    81   74   82 1   
    82   75   79 1   
    83   83   84 1   
    84   83   91 1   
    85   84   85 1   
    86   84   87 1   
    87   84   92 1   
    88   85   86 2   
    89   85  102 1   
    90   87   88 1   
    91   87   89 1   
    92   87   93 1   
    93   88   90 1   
    94   88   94 1   
    95   88   95 1   
    96   89   96 1   
    97   89   97 1   
    98   89   98 1   
    99   90   99 1   
   100   90  100 1   
   101   90  101 1   
   102  102  103 1   
   103  102  110 1   
   104  103  104 1   
   105  103  106 1   
   106  103  111 1   
   107  104  105 2   
   108  104  114 1   
   109  106  107 1   
   110  106  112 1   
   111  106  113 1   
   112  107  108 1   
   113  107  109 1   
   114  114  115 1   
   115  114  125 1   
   116  115  116 1   
   117  115  118 1   
   118  115  126 1   
   119  116  117 2   
   120  116  134 1   
   121  118  119 1   
   122  118  127 1   
   123  118  128 1   
   124  119  120 ar  
   125  119  121 ar  
   126  120  122 ar  
   127  120  129 1   
   128  121  123 ar  
   129  121  130 1   
   130  122  124 ar  
   131  122  131 1   
   132  123  124 ar  
   133  123  132 1   
   134  124  133 1   
   135  134  135 1   
   136  134  140 1   
   137  135  136 1   
   138  135  138 1   
   139  135  141 1   
   140  136  137 2   
   141  136  148 1   
   142  138  139 1   
   143  138  142 1   
   144  138  143 1   
   145  139  140 1   
   146  139  144 1   
   147  139  145 1   
   148  140  146 1   
   149  140  147 1   
   150  148  149 1   
   151  148  157 1   
   152  149  150 1   
   153  149  152 1   
   154  149  158 1   
   155  150  151 2   
   156  150  163 1   
   157  152  153 1   
   158  152  159 1   
   159  152  160 1   
   160  153  154 1   
   161  153  161 1   
   162  153  162 1   
   163  154  155 1   
   164  154  156 1   
   165  163  164 1   
   166  163  168 1   
   167  164  165 1   
   168  164  166 1   
   169  164  167 1   
   170  170  171 1   
   171  170  172 1   
   172  173  174 1   
   173  173  175 1   
@<TRIPOS>SUBSTRUCTURE
     1 MOL         1 TEMP              0 ****  ****    0 ROOT
