@<TRIPOS>MOLECULE
MOL
  189   185     1     0     0
SMALL
resp


@<TRIPOS>ATOM
      1 C1         -0.4280    2.1660    6.3020 c3        1 MOL     -0.373720
      2 C2         -0.4840    1.7540    4.8120 c         1 MOL      0.727431
      3 O1          0.4620    2.0360    4.0330 o         1 MOL     -0.619334
      4 H1         -1.4250    2.4530    6.6360 hc        1 MOL      0.098485
      5 H2         -0.0730    1.3260    6.8980 hc        1 MOL      0.098485
      6 H3          0.2510    3.0090    6.4210 hc        1 MOL      0.098485
      7 N1         -1.6020    1.2290    4.4050 n         1 MOL     -0.736276
      8 C3         -2.1010    1.1330    2.9960 c3        1 MOL      0.183642
      9 C4         -2.5620    2.5180    2.5520 c         1 MOL      0.750848
     10 O2         -3.4980    3.0560    3.1590 o         1 MOL     -0.584981
     11 C5         -3.2350    0.1790    2.9010 c3        1 MOL     -0.236969
     12 C6         -3.8770    0.0280    1.5530 c         1 MOL      0.846680
     13 O3         -3.1790    0.2130    0.6000 o         1 MOL     -0.691021
     14 O4         -5.1250   -0.2110    1.5530 o         1 MOL     -0.691021
     15 H4         -2.2510    0.9980    5.1420 hn        1 MOL      0.363098
     16 H5         -1.2760    0.7900    2.3730 h1        1 MOL     -0.006065
     17 H6         -4.0220    0.5500    3.5730 hc        1 MOL      0.041393
     18 H7         -3.0100   -0.8460    3.1810 hc        1 MOL      0.041393
     19 N2         -1.9730    3.0920    1.4670 n         1 MOL     -0.553055
     20 C7         -2.2290    4.5260    1.0780 c3        1 MOL      0.083150
     21 C8         -3.2620    4.7790   -0.0600 c         1 MOL      0.434628
     22 O5         -3.9010    5.8090   -0.1780 o         1 MOL     -0.559733
     23 C9         -0.8580    5.1120    0.6450 c3        1 MOL     -0.026140
     24 C10        -0.7760    6.7010    0.4040 c3        1 MOL     -0.094866
     25 C11        -1.1110    7.4540    1.6810 c3        1 MOL      0.143402
     26 C12        -0.6640    8.9450    1.7010 c3        1 MOL     -0.036186
     27 N3          0.6870    9.2750    1.2640 n4        1 MOL     -0.411705
     28 H8         -1.4270    2.4700    0.8880 hn        1 MOL      0.324913
     29 H9         -2.5530    5.0390    1.9880 h1        1 MOL      0.043655
     30 H10        -0.6160    4.5920   -0.2790 hc        1 MOL      0.023508
     31 H11        -0.1480    4.8050    1.4050 hc        1 MOL      0.023508
     32 H12        -1.4950    7.0330   -0.3450 hc        1 MOL      0.021138
     33 H13         0.2530    6.9280    0.0990 hc        1 MOL      0.021138
     34 H14        -0.5710    7.0290    2.5230 hc        1 MOL      0.017766
     35 H15        -2.1750    7.4520    1.9040 hc        1 MOL      0.017766
     36 H16        -0.8920    9.3150    2.7010 hx        1 MOL      0.094948
     37 H17        -1.3930    9.4930    1.0980 hx        1 MOL      0.094948
     38 H18         0.8570   10.2660    1.3840 hn        1 MOL      0.341286
     39 H19         1.3840    8.8510    1.8620 hn        1 MOL      0.341286
     40 H20         0.8890    8.9830    0.3180 hn        1 MOL      0.341286
     41 N4         -3.3720    3.8270   -0.9670 n         1 MOL     -0.221821
     42 C13        -4.2310    3.7900   -2.1250 c3        1 MOL     -0.005087
     43 C14        -5.3400    2.6940   -2.0750 c         1 MOL      0.462412
     44 O6         -6.0310    2.4830   -3.0400 o         1 MOL     -0.464647
     45 C15        -3.3870    3.4730   -3.4220 c3        1 MOL     -0.280728
     46 C16        -2.5310    2.2980   -3.3540 c         1 MOL      0.878038
     47 O7         -1.6020    2.2670   -4.1890 o         1 MOL     -0.766434
     48 O8         -2.5980    1.5150   -2.3940 o         1 MOL     -0.766434
     49 H21        -2.8930    2.9480   -0.8330 hn        1 MOL      0.223476
     50 H22        -4.7830    4.7250   -2.2510 h1        1 MOL      0.102556
     51 H23        -2.7920    4.3880   -3.4760 hc        1 MOL      0.065592
     52 H24        -3.9930    3.5980   -4.3150 hc        1 MOL      0.065592
     53 N5         -5.5660    2.1190   -0.8670 n         1 MOL     -0.294873
     54 C17        -6.8720    1.5150   -0.4890 c3        1 MOL     -0.136397
     55 C18        -7.2260    0.2800   -1.2930 c         1 MOL      0.422538
     56 O9         -8.1540    0.1790   -2.1460 o         1 MOL     -0.558201
     57 H25        -4.8360    2.1550   -0.1700 hn        1 MOL      0.199611
     58 H26        -7.5770    2.3210   -0.6770 h1        1 MOL      0.101283
     59 H27        -7.0940    1.2220    0.5350 h1        1 MOL      0.101283
     60 N6         -6.3890   -0.6850   -1.0380 n         1 MOL     -0.061958
     61 C19        -6.5390   -2.1300   -1.4420 c3        1 MOL     -0.054793
     62 C20        -6.4640   -3.1190   -0.2960 c         1 MOL      0.346481
     63 O10        -6.9220   -4.2650   -0.4880 o         1 MOL     -0.529903
     64 C21        -5.6270   -2.4440   -2.6130 c3        1 MOL     -0.061902
     65 C22        -4.1900   -1.9780   -2.2920 c         1 MOL      0.575047
     66 O11        -3.5500   -2.3820   -1.3070 o         1 MOL     -0.671006
     67 O12        -3.5120   -1.2880   -3.1010 o         1 MOL     -0.671006
     68 H28        -5.7840   -0.4810   -0.2580 hn        1 MOL      0.012673
     69 H29        -7.5070   -2.3720   -1.8740 h1        1 MOL      0.114870
     70 H30        -6.1070   -1.9140   -3.4360 hc        1 MOL      0.053142
     71 H31        -5.6800   -3.4800   -2.9340 hc        1 MOL      0.053142
     72 N7         -5.9730   -2.7800    0.8770 n         1 MOL     -0.157183
     73 C23        -5.8310   -3.6790    2.0500 c3        1 MOL     -0.149036
     74 C24        -4.5970   -4.5780    1.9640 c         1 MOL      0.477828
     75 O13        -4.5200   -5.6400    2.6350 o         1 MOL     -0.558551
     76 H32        -5.6860   -1.8420    1.0980 hn        1 MOL      0.222395
     77 H33        -6.7600   -4.2170    2.2290 h1        1 MOL      0.100746
     78 H34        -5.7480   -3.1000    2.9700 h1        1 MOL      0.100746
     79 N8         -3.6500   -4.1220    1.1590 n         1 MOL     -0.163565
     80 C25        -2.3670   -4.8040    0.8630 c3        1 MOL     -0.095157
     81 C26        -1.2500   -3.8090    0.9300 c         1 MOL      0.647275
     82 O14        -1.3580   -2.6410    0.6040 o         1 MOL     -0.640109
     83 C27        -2.3520   -5.6200   -0.4610 c3        1 MOL      0.396748
     84 C28        -3.3520   -6.7030   -0.6200 c3        1 MOL     -0.539598
     85 O15        -2.6510   -4.8260   -1.6240 oh        1 MOL     -0.620766
     86 H35        -3.8240   -3.2550    0.6700 hn        1 MOL      0.093746
     87 H36        -2.0200   -5.4500    1.6640 h1        1 MOL      0.054855
     88 H37        -1.4030   -6.1460   -0.4760 h1        1 MOL      0.000591
     89 H38        -3.2520   -4.1060   -1.4300 ho        1 MOL      0.450686
     90 H39        -3.0410   -7.3850   -1.4220 hc        1 MOL      0.142586
     91 H40        -3.4950   -7.1090    0.3850 hc        1 MOL      0.142586
     92 H41        -4.3760   -6.4110   -0.8550 hc        1 MOL      0.142586
     93 N9         -0.0250   -4.2250    1.3380 n         1 MOL     -0.485056
     94 C29         1.1770   -3.4020    1.3840 c3        1 MOL      0.364703
     95 C30         2.1980   -3.6880    0.3050 c         1 MOL      0.165786
     96 O16         2.7910   -4.7650    0.2650 o         1 MOL     -0.496776
     97 C31         1.6810   -3.5290    2.7670 c3        1 MOL     -0.004639
     98 C32         0.7070   -3.2750    3.9220 c3        1 MOL     -0.170666
     99 C33         3.0260   -2.7470    3.0220 c3        1 MOL     -0.003945
    100 C34         0.2640   -1.8230    4.2000 c3        1 MOL      0.007192
    101 H42         0.1180   -5.2270    1.3130 hn        1 MOL      0.263911
    102 H43         0.9640   -2.3360    1.2850 h1        1 MOL      0.087044
    103 H44         1.8680   -4.5950    2.8180 hc        1 MOL     -0.009561
    104 H45         1.1920   -3.5530    4.8610 hc        1 MOL      0.037479
    105 H46        -0.1900   -3.8660    3.7360 hc        1 MOL      0.037479
    106 H47         3.5110   -3.1130    3.9190 hc        1 MOL     -0.005406
    107 H48         3.7600   -2.8970    2.2300 hc        1 MOL     -0.005406
    108 H49         2.9040   -1.6760    3.1770 hc        1 MOL     -0.005406
    109 H50         0.4840   -1.5160    5.2230 hc        1 MOL      0.028825
    110 H51         0.7340   -1.1680    3.4770 hc        1 MOL      0.028825
    111 H52        -0.8280   -1.7950    4.0740 hc        1 MOL      0.028825
    112 N10         2.6690   -2.6480   -0.4290 n         1 MOL      0.121861
    113 C35         3.8670   -2.6380   -1.3140 c3        1 MOL      0.048074
    114 C36         5.1630   -2.1140   -0.6300 c         1 MOL      0.275326
    115 O17         5.0810   -1.4040    0.3660 o         1 MOL     -0.150586
    116 C37         3.6520   -1.7620   -2.5710 c3        1 MOL      0.042764
    117 C38         2.6960   -2.5110   -3.4780 c3        1 MOL      0.046844
    118 O18         3.0750   -0.5000   -2.1870 oh        1 MOL     -0.762186
    119 H53         2.2960   -1.7780   -0.0690 hn        1 MOL     -0.174574
    120 H54         4.0250   -3.6830   -1.5710 h1        1 MOL      0.054852
    121 H55         4.5160   -1.5620   -3.2150 h1        1 MOL      0.056005
    122 H56         2.2990   -0.5650   -1.6270 ho        1 MOL      0.494127
    123 H57         3.0730   -3.4280   -3.9300 hc        1 MOL      0.000016
    124 H58         1.8100   -2.7230   -2.8930 hc        1 MOL      0.000016
    125 H59         2.4140   -1.8630   -4.3140 hc        1 MOL      0.000016
    126 N11         6.3520   -2.2510   -1.2160 n         1 MOL     -0.252448
    127 C39         7.5550   -1.8480   -0.4570 c3        1 MOL     -0.200636
    128 C40         7.5440   -0.3530   -0.1410 c         1 MOL      0.453923
    129 O19         8.0010    0.0550    0.9070 o         1 MOL     -0.524475
    130 C41         8.8950   -2.0680   -1.2780 c3        1 MOL      0.328406
    131 C42         9.2630   -3.5490   -1.3810 c3        1 MOL     -0.421276
    132 O20         8.9550   -1.4730   -2.5930 oh        1 MOL     -0.660292
    133 H60         6.4160   -2.9280   -1.9590 hn        1 MOL      0.255186
    134 H61         7.6570   -2.4450    0.4440 h1        1 MOL      0.152406
    135 H62         9.6820   -1.5980   -0.7060 h1        1 MOL      0.069331
    136 H63         9.3870   -2.1310   -3.1430 ho        1 MOL      0.418174
    137 H64         8.5350   -4.1020   -1.9790 hc        1 MOL      0.116298
    138 H65        10.2620   -3.6730   -1.8020 hc        1 MOL      0.116298
    139 H66         9.2450   -3.8810   -0.3440 hc        1 MOL      0.116298
    140 N12         6.9160    0.4430   -1.0270 n         1 MOL     -0.120715
    141 C43         6.6020    1.9100   -0.8680 c3        1 MOL     -0.184725
    142 C44         5.5320    2.3170    0.1570 c         1 MOL      0.583128
    143 O21         5.2770    3.5150    0.2640 o         1 MOL     -0.596235
    144 C45         6.1830    2.5050   -2.2270 c3        1 MOL     -0.148517
    145 C46         4.9550    1.9400   -2.7970 c3        1 MOL      0.105883
    146 C47         4.5680    2.4430   -4.1800 c3        1 MOL     -0.109606
    147 C48         3.3520    1.7400   -4.7650 c3        1 MOL      0.134702
    148 N13         2.9040    2.4820   -5.9670 n4        1 MOL     -0.545512
    149 H67         6.5470   -0.0360   -1.8320 hn        1 MOL      0.125674
    150 H68         7.5110    2.3670   -0.4670 h1        1 MOL      0.148629
    151 H69         7.0120    2.2470   -2.8790 hc        1 MOL      0.054244
    152 H70         6.1270    3.5990   -2.1970 hc        1 MOL      0.054244
    153 H71         4.1760    2.0990   -2.0610 hc        1 MOL      0.065108
    154 H72         5.1390    0.8740   -2.8960 hc        1 MOL      0.065108
    155 H73         5.4020    2.3250   -4.8790 hc        1 MOL      0.025410
    156 H74         4.3690    3.5150   -4.1500 hc        1 MOL      0.025410
    157 H75         2.5430    1.8350   -4.0380 hx        1 MOL      0.093173
    158 H76         3.5910    0.7020   -5.0180 hx        1 MOL      0.093173
    159 H77         2.3650    1.8860   -6.5810 hn        1 MOL      0.375765
    160 H78         2.2510    3.1830   -5.6400 hn        1 MOL      0.375765
    161 H79         3.7360    2.9200   -6.3520 hn        1 MOL      0.375765
    162 N14         5.0490    1.3710    0.8840 n         1 MOL     -0.265794
    163 C49         4.1640    1.5390    2.0000 c3        1 MOL      0.008575
    164 C50         4.7740    0.8100    3.2200 c         1 MOL      0.341211
    165 O22         4.5590    1.2220    4.3900 o         1 MOL     -0.534894
    166 C51         2.9000    0.8490    1.5500 c3        1 MOL      0.155503
    167 C52         1.9070    1.7140    0.6740 c3        1 MOL     -0.200857
    168 C53         0.7330    0.8170    0.1920 c         1 MOL      0.721821
    169 O23         0.9370   -0.4360   -0.0740 o         1 MOL     -0.710034
    170 O24        -0.3440    1.3650   -0.0940 o         1 MOL     -0.710034
    171 H80         5.1670    0.4200    0.5620 hn        1 MOL      0.044598
    172 H81         4.0180    2.5790    2.2960 h1        1 MOL      0.102056
    173 H82         2.3970    0.5200    2.4640 hc        1 MOL      0.043630
    174 H83         3.1530   -0.0560    1.0180 hc        1 MOL      0.043630
    175 H84         2.3640    2.1310   -0.2150 hc        1 MOL      0.041155
    176 H85         1.5080    2.5000    1.3140 hc        1 MOL      0.041155
    177 N15         5.4060   -0.3740    3.0540 n         1 MOL      0.018879
    178 C54         6.0370   -1.0250    4.2140 c3        1 MOL     -0.238974
    179 H86         7.1110   -0.8440    4.1910 h1        1 MOL      0.096427
    180 H87         5.6190   -0.6130    5.1330 h1        1 MOL      0.096427
    181 H88         5.8480   -2.0980    4.1770 h1        1 MOL      0.096427
    182 H89         5.4970   -0.7150    2.1060 hn        1 MOL      0.030455
    183 Ca1        -1.6520   -0.6560   -1.1950 Ca        1 MOL      1.773281
    184 O25        -0.7430   -3.0150   -2.2230 oh        1 MOL     -0.845257
    185 H90        -0.5610   -3.1870   -3.1440 ho        1 MOL      0.384474
    186 H91        -1.0800   -3.8350   -1.8850 ho        1 MOL      0.384474
    187 O26        -0.2180    0.0980   -3.4250 oh        1 MOL     -0.845257
    188 H92        -0.9110    0.6330   -3.8110 ho        1 MOL      0.384474
    189 H93         0.5410    0.2480   -3.9920 ho        1 MOL      0.384474
@<TRIPOS>BOND
     1    1    2 1   
     2    1    4 1   
     3    1    5 1   
     4    1    6 1   
     5    2    3 2   
     6    2    7 1   
     7    7    8 1   
     8    7   15 1   
     9    8    9 1   
    10    8   11 1   
    11    8   16 1   
    12    9   10 2   
    13    9   19 1   
    14   11   12 1   
    15   11   17 1   
    16   11   18 1   
    17   12   13 1   
    18   12   14 1   
    19   19   20 1   
    20   19   28 1   
    21   20   21 1   
    22   20   23 1   
    23   20   29 1   
    24   21   22 2   
    25   21   41 1   
    26   23   24 1   
    27   23   30 1   
    28   23   31 1   
    29   24   25 1   
    30   24   32 1   
    31   24   33 1   
    32   25   26 1   
    33   25   34 1   
    34   25   35 1   
    35   26   27 1   
    36   26   36 1   
    37   26   37 1   
    38   27   38 1   
    39   27   39 1   
    40   27   40 1   
    41   41   42 1   
    42   41   49 1   
    43   42   43 1   
    44   42   45 1   
    45   42   50 1   
    46   43   44 2   
    47   43   53 1   
    48   45   46 1   
    49   45   51 1   
    50   45   52 1   
    51   46   47 1   
    52   46   48 1   
    53   53   54 1   
    54   53   57 1   
    55   54   55 1   
    56   54   58 1   
    57   54   59 1   
    58   55   56 2   
    59   55   60 1   
    60   60   61 1   
    61   60   68 1   
    62   61   62 1   
    63   61   64 1   
    64   61   69 1   
    65   62   63 2   
    66   62   72 1   
    67   64   65 1   
    68   64   70 1   
    69   64   71 1   
    70   65   66 1   
    71   65   67 1   
    72   72   73 1   
    73   72   76 1   
    74   73   74 1   
    75   73   77 1   
    76   73   78 1   
    77   74   75 2   
    78   74   79 1   
    79   79   80 1   
    80   79   86 1   
    81   80   81 1   
    82   80   83 1   
    83   80   87 1   
    84   81   82 2   
    85   81   93 1   
    86   83   84 1   
    87   83   85 1   
    88   83   88 1   
    89   84   90 1   
    90   84   91 1   
    91   84   92 1   
    92   85   89 1   
    93   93   94 1   
    94   93  101 1   
    95   94   95 1   
    96   94   97 1   
    97   94  102 1   
    98   95   96 2   
    99   95  112 1   
   100   97   98 1   
   101   97   99 1   
   102   97  103 1   
   103   98  100 1   
   104   98  104 1   
   105   98  105 1   
   106   99  106 1   
   107   99  107 1   
   108   99  108 1   
   109  100  109 1   
   110  100  110 1   
   111  100  111 1   
   112  112  113 1   
   113  112  119 1   
   114  113  114 1   
   115  113  116 1   
   116  113  120 1   
   117  114  115 2   
   118  114  126 1   
   119  116  117 1   
   120  116  118 1   
   121  116  121 1   
   122  117  123 1   
   123  117  124 1   
   124  117  125 1   
   125  118  122 1   
   126  126  127 1   
   127  126  133 1   
   128  127  128 1   
   129  127  130 1   
   130  127  134 1   
   131  128  129 2   
   132  128  140 1   
   133  130  131 1   
   134  130  132 1   
   135  130  135 1   
   136  131  137 1   
   137  131  138 1   
   138  131  139 1   
   139  132  136 1   
   140  140  141 1   
   141  140  149 1   
   142  141  142 1   
   143  141  144 1   
   144  141  150 1   
   145  142  143 2   
   146  142  162 1   
   147  144  145 1   
   148  144  151 1   
   149  144  152 1   
   150  145  146 1   
   151  145  153 1   
   152  145  154 1   
   153  146  147 1   
   154  146  155 1   
   155  146  156 1   
   156  147  148 1   
   157  147  157 1   
   158  147  158 1   
   159  148  159 1   
   160  148  160 1   
   161  148  161 1   
   162  162  163 1   
   163  162  171 1   
   164  163  164 1   
   165  163  166 1   
   166  163  172 1   
   167  164  165 2   
   168  164  177 1   
   169  166  167 1   
   170  166  173 1   
   171  166  174 1   
   172  167  168 1   
   173  167  175 1   
   174  167  176 1   
   175  168  169 1   
   176  168  170 1   
   177  177  178 1   
   178  177  182 1   
   179  178  179 1   
   180  178  180 1   
   181  178  181 1   
   182  184  185 1   
   183  184  186 1   
   184  187  188 1   
   185  187  189 1   
@<TRIPOS>SUBSTRUCTURE
     1 MOL         1 TEMP              0 ****  ****    0 ROOT
