@<TRIPOS>MOLECULE
MOL
  175   173     1     0     0
SMALL
resp


@<TRIPOS>ATOM
      1 C1          0.8670    3.5550    5.5460 c3        1 MOL     -0.379006
      2 C2          0.1730    3.6290    4.1660 c         1 MOL      0.729887
      3 O1          0.8570    3.6100    3.1540 o         1 MOL     -0.547719
      4 H1          1.7920    2.9860    5.4570 hc        1 MOL      0.100067
      5 H2          1.0920    4.5620    5.8950 hc        1 MOL      0.100067
      6 H3          0.2060    3.0630    6.2600 hc        1 MOL      0.100067
      7 N1         -1.1580    3.7940    3.9600 n         1 MOL     -0.714685
      8 C3         -1.8450    3.5480    2.6700 c3        1 MOL      0.183165
      9 C4         -1.9090    4.7510    1.6790 c         1 MOL      0.598681
     10 O2         -2.2730    5.8840    2.0440 o         1 MOL     -0.576951
     11 C5         -3.2790    3.1130    3.0530 c3        1 MOL     -0.256013
     12 C6         -4.1390    2.6490    1.8700 c         1 MOL      0.653162
     13 O3         -5.2980    3.1170    1.7480 o         1 MOL     -0.638628
     14 O4         -3.6250    1.9270    0.9850 o         1 MOL     -0.638628
     15 H4         -1.7230    4.1040    4.7370 hn        1 MOL      0.337193
     16 H5         -1.3510    2.7000    2.1960 h1        1 MOL      0.114140
     17 H6         -3.7790    3.9680    3.5220 hc        1 MOL      0.044650
     18 H7         -3.2930    2.2940    3.7680 hc        1 MOL      0.044650
     19 N2         -1.6990    4.4420    0.3720 n         1 MOL     -0.517928
     20 C7         -1.7230    5.4160   -0.7530 c3        1 MOL      0.393216
     21 C8         -2.7990    5.1640   -1.8160 c         1 MOL      0.389255
     22 O5         -2.9460    5.9020   -2.8090 o         1 MOL     -0.549093
     23 C9         -0.3900    5.4520   -1.4040 c3        1 MOL     -0.202930
     24 H8         -1.3780    3.4920    0.2230 hn        1 MOL      0.230665
     25 H9         -1.8650    6.4280   -0.3760 h1        1 MOL     -0.012183
     26 H10        -0.0800    4.5660   -1.9580 hc        1 MOL      0.043198
     27 H11        -0.4600    6.2540   -2.1320 hc        1 MOL      0.043198
     28 H12         0.3910    5.6220   -0.6580 hc        1 MOL      0.043198
     29 N3         -3.6040    4.1430   -1.6050 n         1 MOL     -0.368375
     30 C10        -4.4170    3.6400   -2.7080 c3        1 MOL      0.110463
     31 C11        -5.8210    2.9960   -2.3510 c         1 MOL      0.286575
     32 O6         -6.6070    2.8720   -3.2370 o         1 MOL     -0.531751
     33 C12        -3.6020    2.6040   -3.5560 c3        1 MOL     -0.099516
     34 C13        -2.9400    1.4710   -2.7230 c         1 MOL      0.676542
     35 O7         -3.6420    0.9350   -1.8380 o         1 MOL     -0.691235
     36 O8         -1.7060    1.2580   -2.8190 o         1 MOL     -0.691235
     37 H13        -3.6370    3.5730   -0.7730 hn        1 MOL      0.232174
     38 H14        -4.6000    4.4580   -3.4100 h1        1 MOL      0.081507
     39 H15        -2.8670    3.1900   -4.1040 hc        1 MOL      0.020656
     40 H16        -4.2530    2.0970   -4.2730 hc        1 MOL      0.020656
     41 N4         -6.0410    2.5690   -1.1530 n         1 MOL      0.025904
     42 C14        -7.2760    1.9280   -0.7950 c3        1 MOL     -0.441674
     43 C15        -7.3360    0.4540   -1.1620 c         1 MOL      0.521623
     44 O9         -8.3990   -0.2010   -1.0660 o         1 MOL     -0.617525
     45 H17        -5.3810    2.7200   -0.4020 hn        1 MOL      0.113917
     46 H18        -8.0820    2.3550   -1.3870 h1        1 MOL      0.169183
     47 H19        -7.3840    1.9550    0.2930 h1        1 MOL      0.169183
     48 N5         -6.2700   -0.1600   -1.6440 n         1 MOL     -0.079139
     49 C16        -6.3560   -1.5020   -2.2320 c3        1 MOL     -0.221556
     50 C17        -6.4960   -2.6540   -1.1880 c         1 MOL      0.533882
     51 O10        -6.7520   -3.7980   -1.6030 o         1 MOL     -0.557451
     52 C18        -5.1890   -1.7800   -3.2060 c3        1 MOL     -0.097817
     53 C19        -3.8480   -2.0550   -2.5130 c         1 MOL      0.598724
     54 N6         -2.8030   -2.1370   -3.3520 n         1 MOL     -0.730992
     55 O11        -3.6360   -2.0840   -1.3010 o         1 MOL     -0.488053
     56 H20        -5.3860    0.3310   -1.6710 hn        1 MOL      0.183090
     57 H21        -7.2840   -1.4700   -2.8050 h1        1 MOL      0.134471
     58 H22        -5.1400   -1.0580   -4.0220 hc        1 MOL      0.060769
     59 H23        -5.3810   -2.7030   -3.7510 hc        1 MOL      0.060769
     60 H24        -2.7800   -2.0150   -4.3520 hn        1 MOL      0.351360
     61 H25        -1.9490   -2.3700   -2.8680 hn        1 MOL      0.351360
     62 N7         -6.4200   -2.4100    0.1000 n         1 MOL     -0.242931
     63 C20        -6.5530   -3.3780    1.1770 c3        1 MOL     -0.039133
     64 C21        -5.4280   -4.3800    1.4380 c         1 MOL      0.452837
     65 O12        -5.5780   -5.4230    2.0590 o         1 MOL     -0.580547
     66 H26        -6.0080   -1.5130    0.3070 hn        1 MOL      0.171920
     67 H27        -7.4710   -3.9580    1.0680 h1        1 MOL      0.062285
     68 H28        -6.7910   -2.8600    2.1030 h1        1 MOL      0.062285
     69 N8         -4.2020   -4.0570    1.0200 n         1 MOL     -0.008236
     70 C22        -2.9510   -4.7290    1.3280 c3        1 MOL     -0.233246
     71 C23        -1.9010   -3.6930    1.5640 c         1 MOL      0.551540
     72 O13        -2.2290   -2.5580    1.2690 o         1 MOL     -0.507265
     73 C24        -2.5330   -5.5570    0.1570 c3        1 MOL      0.414428
     74 C25        -3.2710   -6.9250    0.0490 c3        1 MOL     -0.560526
     75 O14        -2.8080   -4.9230   -1.0800 oh        1 MOL     -0.557252
     76 H29        -4.1400   -3.1270    0.6300 hn        1 MOL      0.017940
     77 H30        -3.0170   -5.2400    2.2860 h1        1 MOL      0.111273
     78 H31        -1.4590   -5.7160    0.0710 h1        1 MOL      0.007839
     79 H32        -2.5750   -3.9980   -1.0090 ho        1 MOL      0.314059
     80 H33        -2.8530   -7.3620   -0.8560 hc        1 MOL      0.145617
     81 H34        -3.0350   -7.5860    0.8830 hc        1 MOL      0.145617
     82 H35        -4.3430   -6.7520    0.0260 hc        1 MOL      0.145617
     83 N9         -0.6470   -4.0530    1.9730 n         1 MOL     -0.446298
     84 C26         0.4420   -3.0460    1.9700 c3        1 MOL      0.074518
     85 C27         1.4810   -3.2470    0.8100 c         1 MOL      0.461955
     86 O15         1.9970   -4.2770    0.4880 o         1 MOL     -0.576443
     87 C28         1.1510   -3.1260    3.3020 c3        1 MOL      0.296647
     88 C29         0.3410   -2.5780    4.4830 c3        1 MOL      0.042912
     89 C30         2.5400   -2.4760    3.2730 c3        1 MOL     -0.389141
     90 C31         1.1490   -2.4880    5.8290 c3        1 MOL     -0.106167
     91 H36        -0.5890   -4.9750    2.3860 hn        1 MOL      0.246227
     92 H37        -0.0020   -2.0660    1.7920 h1        1 MOL     -0.059034
     93 H38         1.2580   -4.1750    3.5750 hc        1 MOL     -0.048186
     94 H39        -0.5890   -3.1380    4.5460 hc        1 MOL     -0.038137
     95 H40         0.0190   -1.5590    4.3080 hc        1 MOL     -0.038137
     96 H41         3.2030   -2.8660    2.4990 hc        1 MOL      0.073908
     97 H42         2.3560   -1.4260    3.0700 hc        1 MOL      0.073908
     98 H43         3.0240   -2.4650    4.2520 hc        1 MOL      0.073908
     99 H44         1.6820   -1.5470    5.9410 hc        1 MOL      0.021407
    100 H45         0.4590   -2.5920    6.6640 hc        1 MOL      0.021407
    101 H46         1.8360   -3.3190    6.0150 hc        1 MOL      0.021407
    102 N10         1.7930   -2.1000    0.1790 n         1 MOL     -0.170432
    103 C32         2.5610   -2.0420   -1.1150 c3        1 MOL      0.142605
    104 C33         4.0250   -1.5990   -0.8990 c         1 MOL      0.454186
    105 O16         4.3720   -1.0270    0.0950 o         1 MOL     -0.368486
    106 C34         1.7840   -1.0680   -2.0760 c3        1 MOL     -0.239207
    107 C35         0.3620   -1.6020   -2.4980 c         1 MOL      0.635151
    108 O17        -0.5760   -1.7700   -1.6660 o         1 MOL     -0.646664
    109 O18         0.2860   -1.9870   -3.6970 o         1 MOL     -0.646664
    110 H47         1.3540   -1.2350    0.4650 hn        1 MOL      0.157972
    111 H48         2.6130   -3.0270   -1.5830 h1        1 MOL      0.051016
    112 H49         2.3720   -0.9340   -2.9830 hc        1 MOL      0.062654
    113 H50         1.7360   -0.1010   -1.5760 hc        1 MOL      0.062654
    114 N11         4.9270   -1.7800   -1.9150 n         1 MOL     -0.790850
    115 C36         6.3740   -1.5680   -1.6610 c3        1 MOL      0.491961
    116 C37         6.7410   -0.1570   -1.1220 c         1 MOL      0.295813
    117 O19         7.4420   -0.0920   -0.0990 o         1 MOL     -0.462536
    118 C38         7.1900   -1.9040   -2.9160 c3        1 MOL     -0.315268
    119 C39         8.6590   -1.7560   -2.6360 ca        1 MOL      0.098305
    120 C40         9.1740   -2.2580   -1.4340 ca        1 MOL     -0.150731
    121 C41         9.5220   -1.0910   -3.5560 ca        1 MOL     -0.150731
    122 C42        10.5580   -2.0360   -1.1570 ca        1 MOL     -0.137274
    123 C43        10.9080   -0.9860   -3.2640 ca        1 MOL     -0.137274
    124 C44        11.4140   -1.3420   -2.0270 ca        1 MOL     -0.084936
    125 H51         4.5710   -2.2230   -2.7480 hn        1 MOL      0.364725
    126 H52         6.6120   -2.2430   -0.8290 h1        1 MOL      0.051567
    127 H53         6.8510   -1.1630   -3.6410 hc        1 MOL      0.089948
    128 H54         6.8680   -2.9020   -3.1870 hc        1 MOL      0.089948
    129 H55         8.5460   -2.7570   -0.7070 ha        1 MOL      0.113758
    130 H56         9.1510   -0.6210   -4.4560 ha        1 MOL      0.113758
    131 H57        10.9530   -2.3780   -0.2200 ha        1 MOL      0.108089
    132 H58        11.5500   -0.4940   -3.9750 ha        1 MOL      0.108089
    133 H59        12.4150   -1.0320   -1.7970 ha        1 MOL      0.102494
    134 N12         6.2570    0.9670   -1.6830 n         1 MOL     -0.056094
    135 C45         6.6420    2.2590   -1.0430 c3        1 MOL     -0.060144
    136 C46         5.9430    2.4550    0.3170 c         1 MOL      0.425968
    137 O20         6.4780    3.1260    1.2000 o         1 MOL     -0.530074
    138 C47         6.1680    3.3080   -2.0260 c3        1 MOL     -0.117654
    139 C48         5.1560    2.6520   -3.0000 c3        1 MOL     -0.038307
    140 C49         5.3870    1.1650   -2.8220 c3        1 MOL      0.031806
    141 H60         7.7230    2.2990   -0.8620 h1        1 MOL      0.085049
    142 H61         5.7970    4.1810   -1.4870 hc        1 MOL      0.054836
    143 H62         6.9940    3.6430   -2.6510 hc        1 MOL      0.054836
    144 H63         4.1200    2.9410   -2.8260 hc        1 MOL      0.040721
    145 H64         5.4020    2.9950   -4.0130 hc        1 MOL      0.040721
    146 H65         4.4240    0.7090   -2.5880 h1        1 MOL      0.016441
    147 H66         5.8370    0.7310   -3.7170 h1        1 MOL      0.016441
    148 N13         4.8150    1.8520    0.6080 n         1 MOL     -0.139133
    149 C50         4.2200    1.8490    1.9560 c3        1 MOL     -0.439988
    150 C51         5.1390    1.0800    2.9960 c         1 MOL      0.632730
    151 O21         5.2370    1.4610    4.1410 o         1 MOL     -0.571800
    152 C52         2.7580    1.3530    1.8730 c3        1 MOL      0.059055
    153 C53         1.9500    1.9410    0.6880 c3        1 MOL      0.128800
    154 C54         0.5980    1.3140    0.6880 c         1 MOL      0.366671
    155 O22         0.4100    0.1620    1.2120 o         1 MOL     -0.590696
    156 O23        -0.2910    1.8040    0.0090 o         1 MOL     -0.590696
    157 H67         4.4460    1.1930   -0.0630 hn        1 MOL      0.211757
    158 H68         4.0740    2.9170    2.1660 h1        1 MOL      0.179944
    159 H69         2.2310    1.6440    2.7910 hc        1 MOL      0.029301
    160 H70         2.7670    0.2750    1.7000 hc        1 MOL      0.029301
    161 H71         2.5040    1.7980   -0.2310 hc        1 MOL      0.007252
    162 H72         1.9070    3.0300    0.7890 hc        1 MOL      0.007252
    163 N14         5.8530    0.0420    2.5620 n         1 MOL     -0.079699
    164 C55         6.8730   -0.6180    3.3700 c3        1 MOL     -0.304352
    165 H73         7.1790   -1.5440    2.8820 h1        1 MOL      0.107770
    166 H74         7.7360    0.0390    3.4740 h1        1 MOL      0.107770
    167 H75         6.4660   -0.8440    4.3560 h1        1 MOL      0.107770
    168 H76         5.7260   -0.2290    1.5950 hn        1 MOL      0.050554
    169 Ca1        -2.1230   -0.0680   -0.0420 Ca        1 MOL      1.668430
    170 O24        -4.5860   -0.4710    1.3650 oh        1 MOL     -0.784994
    171 H77        -4.5380    0.4690    1.5010 ho        1 MOL      0.387960
    172 H78        -5.0850   -0.8020    2.1090 ho        1 MOL      0.387960
    173 O25        -1.8010    0.1890    2.6290 oh        1 MOL     -0.784994
    174 H79        -0.8540    0.3110    2.6830 ho        1 MOL      0.387960
    175 H80        -2.1100    0.3190    3.5260 ho        1 MOL      0.387960
@<TRIPOS>BOND
     1    1    2 1   
     2    1    4 1   
     3    1    5 1   
     4    1    6 1   
     5    2    3 2   
     6    2    7 1   
     7    7    8 1   
     8    7   15 1   
     9    8    9 1   
    10    8   11 1   
    11    8   16 1   
    12    9   10 2   
    13    9   19 1   
    14   11   12 1   
    15   11   17 1   
    16   11   18 1   
    17   12   13 1   
    18   12   14 1   
    19   19   20 1   
    20   19   24 1   
    21   20   21 1   
    22   20   23 1   
    23   20   25 1   
    24   21   22 2   
    25   21   29 1   
    26   23   26 1   
    27   23   27 1   
    28   23   28 1   
    29   29   30 1   
    30   29   37 1   
    31   30   31 1   
    32   30   33 1   
    33   30   38 1   
    34   31   32 2   
    35   31   41 1   
    36   33   34 1   
    37   33   39 1   
    38   33   40 1   
    39   34   35 1   
    40   34   36 1   
    41   41   42 1   
    42   41   45 1   
    43   42   43 1   
    44   42   46 1   
    45   42   47 1   
    46   43   44 2   
    47   43   48 1   
    48   48   49 1   
    49   48   56 1   
    50   49   50 1   
    51   49   52 1   
    52   49   57 1   
    53   50   51 2   
    54   50   62 1   
    55   52   53 1   
    56   52   58 1   
    57   52   59 1   
    58   53   54 1   
    59   53   55 2   
    60   54   60 1   
    61   54   61 1   
    62   62   63 1   
    63   62   66 1   
    64   63   64 1   
    65   63   67 1   
    66   63   68 1   
    67   64   65 2   
    68   64   69 1   
    69   69   70 1   
    70   69   76 1   
    71   70   71 1   
    72   70   73 1   
    73   70   77 1   
    74   71   72 2   
    75   71   83 1   
    76   73   74 1   
    77   73   75 1   
    78   73   78 1   
    79   74   80 1   
    80   74   81 1   
    81   74   82 1   
    82   75   79 1   
    83   83   84 1   
    84   83   91 1   
    85   84   85 1   
    86   84   87 1   
    87   84   92 1   
    88   85   86 2   
    89   85  102 1   
    90   87   88 1   
    91   87   89 1   
    92   87   93 1   
    93   88   90 1   
    94   88   94 1   
    95   88   95 1   
    96   89   96 1   
    97   89   97 1   
    98   89   98 1   
    99   90   99 1   
   100   90  100 1   
   101   90  101 1   
   102  102  103 1   
   103  102  110 1   
   104  103  104 1   
   105  103  106 1   
   106  103  111 1   
   107  104  105 2   
   108  104  114 1   
   109  106  107 1   
   110  106  112 1   
   111  106  113 1   
   112  107  108 1   
   113  107  109 1   
   114  114  115 1   
   115  114  125 1   
   116  115  116 1   
   117  115  118 1   
   118  115  126 1   
   119  116  117 2   
   120  116  134 1   
   121  118  119 1   
   122  118  127 1   
   123  118  128 1   
   124  119  120 ar  
   125  119  121 ar  
   126  120  122 ar  
   127  120  129 1   
   128  121  123 ar  
   129  121  130 1   
   130  122  124 ar  
   131  122  131 1   
   132  123  124 ar  
   133  123  132 1   
   134  124  133 1   
   135  134  135 1   
   136  134  140 1   
   137  135  136 1   
   138  135  138 1   
   139  135  141 1   
   140  136  137 2   
   141  136  148 1   
   142  138  139 1   
   143  138  142 1   
   144  138  143 1   
   145  139  140 1   
   146  139  144 1   
   147  139  145 1   
   148  140  146 1   
   149  140  147 1   
   150  148  149 1   
   151  148  157 1   
   152  149  150 1   
   153  149  152 1   
   154  149  158 1   
   155  150  151 2   
   156  150  163 1   
   157  152  153 1   
   158  152  159 1   
   159  152  160 1   
   160  153  154 1   
   161  153  161 1   
   162  153  162 1   
   163  154  155 1   
   164  154  156 1   
   165  163  164 1   
   166  163  168 1   
   167  164  165 1   
   168  164  166 1   
   169  164  167 1   
   170  170  171 1   
   171  170  172 1   
   172  173  174 1   
   173  173  175 1   
@<TRIPOS>SUBSTRUCTURE
     1 MOL         1 TEMP              0 ****  ****    0 ROOT
