@<TRIPOS>MOLECULE
MOL
  179   176     1     0     0
SMALL
resp


@<TRIPOS>ATOM
      1 C1         -0.3970   -3.0850    6.3980 c3        1 MOL     -0.388469
      2 C2         -0.3220   -2.8360    4.8890 c         1 MOL      0.706250
      3 O1         -1.1770   -3.2220    4.1170 o         1 MOL     -0.565755
      4 H1         -0.6010   -4.1390    6.5830 hc        1 MOL      0.099656
      5 H2          0.5530   -2.8140    6.8590 hc        1 MOL      0.099656
      6 H3         -1.1960   -2.4800    6.8270 hc        1 MOL      0.099656
      7 N1          0.8170   -2.1640    4.4960 n         1 MOL     -0.490591
      8 C3          1.3460   -2.0220    3.1480 c3        1 MOL      0.024682
      9 C4          1.6940   -3.3820    2.4840 c         1 MOL      0.491213
     10 O2          2.4890   -4.0960    3.0420 o         1 MOL     -0.540971
     11 C5          2.6080   -1.1250    3.2210 c3        1 MOL     -0.246360
     12 C6          3.2050   -0.9390    1.8240 c         1 MOL      0.821251
     13 O3          4.2380   -0.2090    1.7160 o         1 MOL     -0.750635
     14 O4          2.6870   -1.3930    0.7910 o         1 MOL     -0.750635
     15 H4          1.3820   -1.8460    5.2660 hn        1 MOL      0.294243
     16 H5          0.5340   -1.4860    2.6510 h1        1 MOL      0.042149
     17 H6          3.1990   -1.7170    3.9200 hc        1 MOL      0.071815
     18 H7          2.3570   -0.1450    3.6290 hc        1 MOL      0.071815
     19 N2          1.0960   -3.7980    1.3760 n         1 MOL     -0.074997
     20 C7          0.8930   -5.1280    0.8960 c3        1 MOL     -0.074188
     21 C8          2.1840   -5.5370    0.1930 c         1 MOL      0.411521
     22 O5          2.6410   -6.7180    0.2350 o         1 MOL     -0.544248
     23 C9         -0.4290   -5.3170    0.1530 c3        1 MOL     -0.105363
     24 C10        -0.3150   -4.7690   -1.2480 c3        1 MOL      0.095209
     25 C11        -1.6960   -4.8450   -1.9630 c3        1 MOL     -0.133207
     26 C12        -1.6210   -4.4050   -3.4640 c3        1 MOL      0.248334
     27 N3         -2.8970   -4.5130   -4.2150 n4        1 MOL     -0.365818
     28 H8          0.4090   -3.1090    1.0810 hn        1 MOL      0.131548
     29 H9          0.9110   -5.7730    1.7700 h1        1 MOL      0.103602
     30 H10        -1.1870   -4.7670    0.7120 hc        1 MOL      0.061752
     31 H11        -0.5870   -6.3980    0.1350 hc        1 MOL      0.061752
     32 H12         0.4200   -5.3580   -1.8000 hc        1 MOL      0.020386
     33 H13         0.0630   -3.7470   -1.2720 hc        1 MOL      0.020386
     34 H14        -2.4540   -4.2520   -1.4600 hc        1 MOL      0.030756
     35 H15        -2.0750   -5.8610   -1.9180 hc        1 MOL      0.030756
     36 H16        -0.8160   -4.9680   -3.9480 hx        1 MOL      0.000694
     37 H17        -1.3190   -3.3620   -3.5760 hx        1 MOL      0.000694
     38 H18        -3.1710   -5.4410   -4.5130 hn        1 MOL      0.319726
     39 H19        -3.6210   -4.2680   -3.5600 hn        1 MOL      0.319726
     40 H20        -2.8390   -3.9970   -5.0720 hn        1 MOL      0.319726
     41 N4          2.9200   -4.5650   -0.3770 n         1 MOL     -0.197368
     42 C13         4.1310   -4.8210   -1.1280 c3        1 MOL      0.068572
     43 C14         5.3580   -4.0980   -0.5990 c         1 MOL      0.417132
     44 O6          6.5180   -4.5090   -0.8170 o         1 MOL     -0.526406
     45 C15         3.9310   -4.6320   -2.6350 c3        1 MOL     -0.416333
     46 C16         3.1310   -3.3680   -2.9960 c         1 MOL      0.837918
     47 O7          2.8670   -2.4420   -2.2020 o         1 MOL     -0.758026
     48 O8          2.5170   -3.3380   -4.0810 o         1 MOL     -0.758026
     49 H21         2.6030   -3.6050   -0.3330 hn        1 MOL      0.119587
     50 H22         4.4290   -5.8610   -1.0060 h1        1 MOL      0.110893
     51 H23         3.3670   -5.4200   -3.1290 hc        1 MOL      0.129640
     52 H24         4.9420   -4.4710   -3.0350 hc        1 MOL      0.129640
     53 N5          5.2110   -3.0540    0.2840 n         1 MOL     -0.195890
     54 C17         6.3260   -2.4660    1.0640 c3        1 MOL     -0.161878
     55 C18         6.8770   -1.1860    0.4670 c         1 MOL      0.549562
     56 O9          8.0040   -0.8050    0.7910 o         1 MOL     -0.577405
     57 H25         4.2990   -2.8580    0.6990 hn        1 MOL      0.184175
     58 H26         7.1560   -3.1520    1.2250 h1        1 MOL      0.114964
     59 H27         5.8990   -2.2400    2.0380 h1        1 MOL      0.114964
     60 N6          6.1120   -0.5380   -0.4280 n         1 MOL     -0.145602
     61 C19         6.4720    0.5760   -1.2780 c3        1 MOL     -0.064238
     62 C20         6.1550    1.9390   -0.5850 c         1 MOL      0.231587
     63 O10         6.5240    2.9740   -1.1750 o         1 MOL     -0.450566
     64 C21         5.8260    0.4310   -2.6810 c3        1 MOL     -0.214245
     65 C22         4.2980    0.4520   -2.6130 c         1 MOL      0.771610
     66 N7          3.6990    0.5080   -3.7580 n         1 MOL     -0.802307
     67 O11         3.6130    0.5990   -1.6130 o         1 MOL     -0.521456
     68 H28         5.1280   -0.7590   -0.4460 hn        1 MOL     -0.005350
     69 H29         7.5510    0.4780   -1.3330 h1        1 MOL      0.140940
     70 H30         6.2040   -0.5270   -3.0310 hc        1 MOL      0.085929
     71 H31         6.0910    1.2850   -3.3030 hc        1 MOL      0.085929
     72 H32         4.1690    0.6930   -4.6320 hn        1 MOL      0.358540
     73 H33         2.6850    0.4460   -3.7750 hn        1 MOL      0.358540
     74 N8          5.6920    1.9180    0.6460 n         1 MOL     -0.027227
     75 C23         5.5670    2.9820    1.5850 c3        1 MOL     -0.340785
     76 C24         4.2390    3.7350    1.6070 c         1 MOL      0.598349
     77 O12         4.1970    4.8450    2.1390 o         1 MOL     -0.529345
     78 H34         5.3650    1.0140    0.9750 hn        1 MOL      0.261818
     79 H35         6.4090    3.6370    1.3580 h1        1 MOL      0.147664
     80 H36         5.7980    2.5260    2.5520 h1        1 MOL      0.147664
     81 N9          3.2250    3.2290    0.8960 n         1 MOL     -0.412023
     82 C25         1.9420    3.8120    0.6300 c3        1 MOL      0.089276
     83 C26         0.7430    2.8000    0.5660 c         1 MOL      0.707771
     84 O13         0.9220    1.6700    0.2230 o         1 MOL     -0.724898
     85 C27         2.0660    4.5640   -0.6720 c3        1 MOL      0.087378
     86 C28         3.0910    5.6590   -0.7230 ca        1 MOL     -0.145115
     87 C29         4.3930    5.4580   -1.2550 ca        1 MOL     -0.051970
     88 C30         2.8280    6.9080   -0.0960 ca        1 MOL     -0.051970
     89 C31         5.3450    6.4670   -1.2390 ca        1 MOL     -0.315636
     90 C32         3.7510    7.9350    0.0020 ca        1 MOL     -0.315636
     91 C33         5.0360    7.7040   -0.6440 ca        1 MOL      0.383022
     92 O14         6.0340    8.6430   -0.5850 oh        1 MOL     -0.462554
     93 H37         3.4690    2.3410    0.4830 hn        1 MOL      0.259576
     94 H38         1.7130    4.5560    1.3880 h1        1 MOL      0.030380
     95 H39         1.0620    4.9480   -0.8490 hc        1 MOL     -0.027980
     96 H40         2.2980    3.7900   -1.4090 hc        1 MOL     -0.027980
     97 H41         4.6800    4.4570   -1.5550 ha        1 MOL      0.099013
     98 H42         1.8290    7.0450    0.3050 ha        1 MOL      0.099013
     99 H43         6.3120    6.2030   -1.6530 ha        1 MOL      0.164853
    100 H44         3.6180    8.8460    0.5630 ha        1 MOL      0.164853
    101 H45         5.6170    9.3790   -0.1230 ho        1 MOL      0.332502
    102 N10        -0.4320    3.2760    0.9790 n         1 MOL     -0.578017
    103 C34        -1.6750    2.4300    1.1310 c3        1 MOL     -0.085681
    104 C35        -2.9370    3.2400    0.6260 c         1 MOL      0.489000
    105 O15        -3.1730    4.3420    1.1800 o         1 MOL     -0.498566
    106 C36        -1.8160    2.0520    2.6120 c3        1 MOL     -0.024609
    107 C37        -0.5860    1.3370    3.1290 c3        1 MOL      0.210546
    108 C38        -3.0440    1.2070    2.8610 c3        1 MOL     -0.024624
    109 C39        -0.6100    1.0080    4.6240 c3        1 MOL     -0.280550
    110 H46        -0.4400    4.1940    1.3950 hn        1 MOL      0.339827
    111 H47        -1.5510    1.4640    0.6370 h1        1 MOL      0.258382
    112 H48        -1.9230    2.9610    3.2090 hc        1 MOL      0.029987
    113 H49         0.3050    1.9330    2.9610 hc        1 MOL     -0.022122
    114 H50        -0.4210    0.4350    2.5530 hc        1 MOL     -0.022122
    115 H51        -3.9970    1.7360    2.7680 hc        1 MOL      0.012810
    116 H52        -2.9980    0.4390    2.0840 hc        1 MOL      0.012810
    117 H53        -3.0230    0.8560    3.8950 hc        1 MOL      0.012810
    118 H54        -1.0710    0.0310    4.7840 hc        1 MOL      0.062916
    119 H55         0.3900    0.7600    4.9660 hc        1 MOL      0.062916
    120 H56        -1.0440    1.7920    5.2440 hc        1 MOL      0.062916
    121 N11        -3.6700    2.7350   -0.4000 n         1 MOL     -0.335732
    122 C40        -4.9000    3.3160   -0.8790 c3        1 MOL      0.050615
    123 C41        -6.1370    2.9570   -0.1170 c         1 MOL      0.483065
    124 O16        -6.1380    2.0940    0.7220 o         1 MOL     -0.411393
    125 C42        -5.0520    2.9640   -2.3700 c3        1 MOL     -0.102711
    126 O17        -4.9100    1.5870   -2.5080 oh        1 MOL     -0.395835
    127 H57        -3.3980    1.8140   -0.6920 hn        1 MOL      0.232748
    128 H58        -4.8640    4.4020   -0.7500 h1        1 MOL      0.073470
    129 H59        -4.3320    3.4860   -2.9920 h1        1 MOL      0.070363
    130 H60        -6.0370    3.3010   -2.7190 h1        1 MOL      0.070363
    131 H61        -4.6940    1.3960   -3.4260 ho        1 MOL      0.371150
    132 N12        -7.2420    3.4610   -0.5650 n         1 MOL     -0.460652
    133 C43        -8.5620    2.8710   -0.3100 c3        1 MOL      0.236600
    134 C44        -8.6990    1.3260   -0.5540 c         1 MOL      0.430448
    135 O18        -9.2380    0.6660    0.3490 o         1 MOL     -0.470236
    136 C45        -9.4980    3.6950   -1.1990 c3        1 MOL     -0.348486
    137 H62        -7.2140    4.3110   -1.1080 hn        1 MOL      0.288939
    138 H63        -8.7970    3.0930    0.7270 h1        1 MOL      0.053893
    139 H64        -9.1300    3.5780   -2.2170 hc        1 MOL      0.096606
    140 H65       -10.5060    3.3560   -0.9590 hc        1 MOL      0.096606
    141 H66        -9.4010    4.7580   -0.9790 hc        1 MOL      0.096606
    142 N13        -8.2200    0.8180   -1.6950 n         1 MOL     -0.473570
    143 C46        -8.3430   -0.6510   -1.9100 c3        1 MOL      0.273300
    144 C47        -7.5280   -1.4630   -0.9030 c         1 MOL      0.262898
    145 O19        -7.8910   -2.4570   -0.2950 o         1 MOL     -0.477834
    146 C48        -7.9720   -0.9360   -3.3480 c3        1 MOL     -0.396047
    147 H67        -7.8030    1.4120   -2.3960 hn        1 MOL      0.302412
    148 H68        -9.3430   -0.9780   -1.6170 h1        1 MOL      0.070279
    149 H69        -8.1910   -1.9930   -3.5230 hc        1 MOL      0.101543
    150 H70        -8.7440   -0.3820   -3.8790 hc        1 MOL      0.101543
    151 H71        -6.9400   -0.7160   -3.6320 hc        1 MOL      0.101543
    152 N14        -6.3180   -0.8950   -0.6600 n         1 MOL     -0.021670
    153 C49        -5.2680   -1.5390    0.1460 c3        1 MOL     -0.029069
    154 C50        -5.5310   -1.3410    1.6760 c         1 MOL      0.409942
    155 O20        -5.1270   -2.1560    2.4690 o         1 MOL     -0.512176
    156 C51        -3.9880   -0.8190   -0.3000 c3        1 MOL     -0.039256
    157 C52        -2.9060   -1.7330    0.1820 c3        1 MOL     -0.218220
    158 C53        -1.5670   -1.4160   -0.3920 c         1 MOL      0.625763
    159 O21        -0.5110   -1.8220    0.1070 o         1 MOL     -0.748084
    160 O22        -1.3970   -0.6280   -1.4140 o         1 MOL     -0.748084
    161 H72        -6.0590   -0.0960   -1.2270 hn        1 MOL      0.037031
    162 H73        -5.1160   -2.5930   -0.0850 h1        1 MOL      0.069256
    163 H74        -3.8640    0.1390    0.1970 hc        1 MOL     -0.021318
    164 H75        -4.0280   -0.8020   -1.3960 hc        1 MOL     -0.021318
    165 H76        -3.0590   -2.7990   -0.0000 hc        1 MOL      0.121291
    166 H77        -2.8460   -1.6540    1.2640 hc        1 MOL      0.121291
    167 N15        -6.4570   -0.3950    2.0130 n         1 MOL      0.000808
    168 C54        -7.0440   -0.2290    3.3330 c3        1 MOL     -0.308113
    169 H78        -6.9570   -1.1630    3.8880 h1        1 MOL      0.112458
    170 H79        -6.5180    0.5610    3.8680 h1        1 MOL      0.112458
    171 H80        -8.0960    0.0370    3.2320 h1        1 MOL      0.112458
    172 H81        -6.7800    0.2660    1.3180 hn        1 MOL      0.094422
    173 Ca1         1.2860   -0.6410   -1.2770 Ca        1 MOL      1.798405
    174 O23         0.8290   -1.3720   -3.8530 oh        1 MOL     -0.864879
    175 H82         1.2470   -2.2250   -3.9360 ho        1 MOL      0.411901
    176 H83         0.1390   -1.3760   -4.5280 ho        1 MOL      0.411901
    177 O24         0.8070    1.4680   -2.7980 oh        1 MOL     -0.864879
    178 H84         0.0130    1.9880   -2.8420 ho        1 MOL      0.411901
    179 H85         1.4300    1.9190   -3.3580 ho        1 MOL      0.411901
@<TRIPOS>BOND
     1    1    2 1   
     2    1    4 1   
     3    1    5 1   
     4    1    6 1   
     5    2    3 2   
     6    2    7 1   
     7    7    8 1   
     8    7   15 1   
     9    8    9 1   
    10    8   11 1   
    11    8   16 1   
    12    9   10 2   
    13    9   19 1   
    14   11   12 1   
    15   11   17 1   
    16   11   18 1   
    17   12   13 1   
    18   12   14 1   
    19   19   20 1   
    20   19   28 1   
    21   20   21 1   
    22   20   23 1   
    23   20   29 1   
    24   21   22 2   
    25   21   41 1   
    26   23   24 1   
    27   23   30 1   
    28   23   31 1   
    29   24   25 1   
    30   24   32 1   
    31   24   33 1   
    32   25   26 1   
    33   25   34 1   
    34   25   35 1   
    35   26   27 1   
    36   26   36 1   
    37   26   37 1   
    38   27   38 1   
    39   27   39 1   
    40   27   40 1   
    41   41   42 1   
    42   41   49 1   
    43   42   43 1   
    44   42   45 1   
    45   42   50 1   
    46   43   44 2   
    47   43   53 1   
    48   45   46 1   
    49   45   51 1   
    50   45   52 1   
    51   46   47 1   
    52   46   48 1   
    53   53   54 1   
    54   53   57 1   
    55   54   55 1   
    56   54   58 1   
    57   54   59 1   
    58   55   56 2   
    59   55   60 1   
    60   60   61 1   
    61   60   68 1   
    62   61   62 1   
    63   61   64 1   
    64   61   69 1   
    65   62   63 2   
    66   62   74 1   
    67   64   65 1   
    68   64   70 1   
    69   64   71 1   
    70   65   66 1   
    71   65   67 2   
    72   66   72 1   
    73   66   73 1   
    74   74   75 1   
    75   74   78 1   
    76   75   76 1   
    77   75   79 1   
    78   75   80 1   
    79   76   77 2   
    80   76   81 1   
    81   81   82 1   
    82   81   93 1   
    83   82   83 1   
    84   82   85 1   
    85   82   94 1   
    86   83   84 2   
    87   83  102 1   
    88   85   86 1   
    89   85   95 1   
    90   85   96 1   
    91   86   87 ar  
    92   86   88 ar  
    93   87   89 ar  
    94   87   97 1   
    95   88   90 ar  
    96   88   98 1   
    97   89   91 ar  
    98   89   99 1   
    99   90   91 ar  
   100   90  100 1   
   101   91   92 1   
   102   92  101 1   
   103  102  103 1   
   104  102  110 1   
   105  103  104 1   
   106  103  106 1   
   107  103  111 1   
   108  104  105 2   
   109  104  121 1   
   110  106  107 1   
   111  106  108 1   
   112  106  112 1   
   113  107  109 1   
   114  107  113 1   
   115  107  114 1   
   116  108  115 1   
   117  108  116 1   
   118  108  117 1   
   119  109  118 1   
   120  109  119 1   
   121  109  120 1   
   122  121  122 1   
   123  121  127 1   
   124  122  123 1   
   125  122  125 1   
   126  122  128 1   
   127  123  124 2   
   128  123  132 1   
   129  125  126 1   
   130  125  129 1   
   131  125  130 1   
   132  126  131 1   
   133  132  133 1   
   134  132  137 1   
   135  133  134 1   
   136  133  136 1   
   137  133  138 1   
   138  134  135 2   
   139  134  142 1   
   140  136  139 1   
   141  136  140 1   
   142  136  141 1   
   143  142  143 1   
   144  142  147 1   
   145  143  144 1   
   146  143  146 1   
   147  143  148 1   
   148  144  145 2   
   149  144  152 1   
   150  146  149 1   
   151  146  150 1   
   152  146  151 1   
   153  152  153 1   
   154  152  161 1   
   155  153  154 1   
   156  153  156 1   
   157  153  162 1   
   158  154  155 2   
   159  154  167 1   
   160  156  157 1   
   161  156  163 1   
   162  156  164 1   
   163  157  158 1   
   164  157  165 1   
   165  157  166 1   
   166  158  159 1   
   167  158  160 1   
   168  167  168 1   
   169  167  172 1   
   170  168  169 1   
   171  168  170 1   
   172  168  171 1   
   173  174  175 1   
   174  174  176 1   
   175  177  178 1   
   176  177  179 1   
@<TRIPOS>SUBSTRUCTURE
     1 MOL         1 TEMP              0 ****  ****    0 ROOT
