@<TRIPOS>MOLECULE
MOL
  189   185     1     0     0
SMALL
resp


@<TRIPOS>ATOM
      1 C1          0.4220   -4.3540    5.6140 c3        1 MOL     -0.234974
      2 C2          1.0490   -3.6510    4.3830 c         1 MOL      0.650021
      3 O1          1.1030   -2.3850    4.3670 o         1 MOL     -0.613616
      4 H1          0.7760   -3.8740    6.5260 hc        1 MOL      0.064372
      5 H2         -0.6640   -4.2770    5.5630 hc        1 MOL      0.064372
      6 H3          0.7120   -5.4050    5.6200 hc        1 MOL      0.064372
      7 N1          1.5410   -4.3670    3.3850 n         1 MOL     -0.516672
      8 C3          2.2310   -3.9080    2.1690 c3        1 MOL      0.293696
      9 C4          2.1840   -4.9590    0.9790 c         1 MOL      0.533438
     10 O2          2.0210   -6.1740    1.1880 o         1 MOL     -0.590832
     11 C5          3.6410   -3.5680    2.6350 c3        1 MOL     -0.560815
     12 C6          4.4410   -2.5670    1.7230 c         1 MOL      0.741788
     13 O3          5.6830   -2.5100    1.9890 o         1 MOL     -0.665005
     14 O4          3.9270   -1.8920    0.7930 o         1 MOL     -0.665005
     15 H4          1.4730   -5.3730    3.4360 hn        1 MOL      0.278892
     16 H5          1.8160   -2.9640    1.8050 h1        1 MOL     -0.002505
     17 H6          4.2110   -4.4990    2.5880 hc        1 MOL      0.149827
     18 H7          3.6460   -3.1430    3.6380 hc        1 MOL      0.149827
     19 N2          2.2570   -4.4430   -0.2320 n         1 MOL     -0.315571
     20 C7          2.2570   -5.1570   -1.5450 c3        1 MOL     -0.090254
     21 C8          3.4300   -4.8050   -2.3950 c         1 MOL      0.601946
     22 O5          3.9030   -5.6460   -3.1590 o         1 MOL     -0.595462
     23 C9          0.9520   -4.8780   -2.3340 c3        1 MOL      0.263826
     24 C10        -0.3250   -5.1930   -1.6000 c3        1 MOL     -0.046937
     25 C11         0.8950   -5.7150   -3.5960 c3        1 MOL     -0.603262
     26 C12        -1.6650   -4.7280   -2.1890 c3        1 MOL     -0.016269
     27 H8          2.3750   -3.4410   -0.3640 hn        1 MOL      0.230044
     28 H9          2.4030   -6.2210   -1.3510 h1        1 MOL      0.085829
     29 H10         0.8560   -3.8330   -2.6340 hc        1 MOL      0.057542
     30 H11        -0.2550   -4.6760   -0.6450 hc        1 MOL      0.009144
     31 H12        -0.4150   -6.2710   -1.4360 hc        1 MOL      0.009144
     32 H13        -0.0890   -5.7430   -4.0680 hc        1 MOL      0.139521
     33 H14         1.6060   -5.2600   -4.2750 hc        1 MOL      0.139521
     34 H15         1.0200   -6.7780   -3.3520 hc        1 MOL      0.139521
     35 H16        -1.8450   -5.0580   -3.2140 hc        1 MOL      0.005060
     36 H17        -2.4520   -5.1400   -1.5690 hc        1 MOL      0.005060
     37 H18        -1.7230   -3.6350   -2.1230 hc        1 MOL      0.005060
     38 N3          3.8520   -3.5810   -2.3210 n         1 MOL     -0.464303
     39 C13         4.7240   -2.9290   -3.3100 c3        1 MOL      0.196534
     40 C14         6.0090   -2.2250   -2.7360 c         1 MOL      0.406655
     41 O6          6.9060   -1.9090   -3.5420 o         1 MOL     -0.550360
     42 C15         3.9360   -1.9310   -4.1820 c3        1 MOL     -0.402953
     43 C16         3.1900   -0.8820   -3.3400 c         1 MOL      0.782614
     44 O7          3.4410   -0.8100   -2.1130 o         1 MOL     -0.681926
     45 O8          2.3420   -0.1350   -3.8950 o         1 MOL     -0.681926
     46 H19         3.4420   -2.9440   -1.6540 hn        1 MOL      0.243117
     47 H20         5.2340   -3.6930   -3.9000 h1        1 MOL      0.069212
     48 H21         3.1900   -2.4810   -4.7560 hc        1 MOL      0.105044
     49 H22         4.6120   -1.3560   -4.8260 hc        1 MOL      0.105044
     50 N4          6.0930   -1.9840   -1.4230 n         1 MOL     -0.251217
     51 C17         7.2330   -1.2980   -0.7330 c3        1 MOL     -0.018695
     52 C18         7.5080    0.1540   -1.1830 c         1 MOL      0.447313
     53 O9          8.6910    0.5630   -1.1210 o         1 MOL     -0.572490
     54 H23         5.2480   -1.9590   -0.8740 hn        1 MOL      0.108885
     55 H24         8.1370   -1.8870   -0.8590 h1        1 MOL      0.067449
     56 H25         6.9500   -1.1780    0.3150 h1        1 MOL      0.067449
     57 N5          6.4760    0.9630   -1.5600 n         1 MOL     -0.218885
     58 C19         6.6960    2.3010   -2.0300 c3        1 MOL     -0.027044
     59 C20         6.9990    3.2770   -0.8250 c         1 MOL      0.397519
     60 O10         7.6280    4.3640   -0.9820 o         1 MOL     -0.551094
     61 C21         5.4700    2.7860   -2.7380 c3        1 MOL     -0.275150
     62 C22         4.1030    2.8080   -2.0360 c         1 MOL      0.701710
     63 O11         3.9330    2.1530   -0.9720 o         1 MOL     -0.664158
     64 O12         3.1820    3.3630   -2.6680 o         1 MOL     -0.664158
     65 H26         5.5370    0.6270   -1.7220 hn        1 MOL      0.277098
     66 H27         7.5230    2.3320   -2.7310 h1        1 MOL      0.106435
     67 H28         5.3730    2.2960   -3.7080 hc        1 MOL      0.085576
     68 H29         5.8330    3.7970   -2.9350 hc        1 MOL      0.085576
     69 N6          6.5130    2.9490    0.3890 n         1 MOL     -0.119723
     70 C23         6.5600    3.7580    1.5360 c3        1 MOL     -0.176317
     71 C24         5.1830    4.2950    2.0690 c         1 MOL      0.471877
     72 O13         5.0420    5.1250    3.0030 o         1 MOL     -0.596634
     73 H30         6.0260    2.0580    0.3790 hn        1 MOL      0.151489
     74 H31         7.3150    4.5440    1.4900 h1        1 MOL      0.097774
     75 H32         6.8780    3.1260    2.3650 h1        1 MOL      0.097774
     76 N7          4.0710    3.7940    1.5870 n         1 MOL     -0.169157
     77 C25         2.7220    4.3640    1.8280 c3        1 MOL     -0.123377
     78 C26         1.6940    3.2850    2.1440 c         1 MOL      0.536701
     79 O14         1.9030    2.1640    1.6960 o         1 MOL     -0.635792
     80 C27         2.2900    5.2260    0.6790 c3        1 MOL      0.048842
     81 C28         3.3100    6.1780   -0.0340 c3        1 MOL     -0.322420
     82 C29         2.5790    6.9770   -1.1920 c         1 MOL      0.618693
     83 N8          2.5720    6.3330   -2.3680 n         1 MOL     -0.756497
     84 O15         1.9660    7.9980   -0.9650 o         1 MOL     -0.575504
     85 H33         4.0430    3.1180    0.8290 hn        1 MOL      0.173830
     86 H34         2.8050    4.9780    2.7290 h1        1 MOL      0.088601
     87 H35         1.4310    5.8720    0.8600 hc        1 MOL      0.048656
     88 H36         1.9430    4.4730   -0.0200 hc        1 MOL      0.048656
     89 H37         4.0940    5.5990   -0.5280 hc        1 MOL      0.116498
     90 H38         3.8260    6.8430    0.6560 hc        1 MOL      0.116498
     91 H39         2.8820    5.3730   -2.4620 hn        1 MOL      0.345854
     92 H40         1.9380    6.7670   -3.0180 hn        1 MOL      0.345854
     93 N9          0.5150    3.6090    2.7170 n         1 MOL     -0.482344
     94 C30        -0.5130    2.5540    2.9450 c3        1 MOL      0.210247
     95 C31        -1.6120    2.8260    1.8920 c         1 MOL      0.350950
     96 O16        -2.0780    3.9420    1.7220 o         1 MOL     -0.564763
     97 C32        -1.0390    2.4660    4.3550 c3        1 MOL      0.072352
     98 C33        -1.8860    1.2360    4.5390 c3        1 MOL     -0.213932
     99 C34         0.1050    2.2640    5.2880 c3        1 MOL     -0.213932
    100 H41         0.5040    4.5240    3.1440 hn        1 MOL      0.276209
    101 H42        -0.0660    1.5740    2.7870 h1        1 MOL      0.178679
    102 H43        -1.6270    3.3370    4.6440 hc        1 MOL      0.009483
    103 H44        -2.8920    1.4600    4.2060 hc        1 MOL      0.043111
    104 H45        -1.5720    0.4130    3.9000 hc        1 MOL      0.043111
    105 H46        -2.0790    0.9430    5.5750 hc        1 MOL      0.043111
    106 H47         0.7270    1.4350    4.9320 hc        1 MOL      0.043111
    107 H48         0.8120    3.0870    5.3220 hc        1 MOL      0.043111
    108 H49        -0.1600    2.0020    6.3150 hc        1 MOL      0.043111
    109 N10        -1.9910    1.7260    1.2510 n         1 MOL     -0.016572
    110 C35        -3.0090    1.8020    0.2610 c3        1 MOL     -0.032813
    111 C36        -4.4120    1.3440    0.7800 c         1 MOL      0.388705
    112 O17        -4.5590    0.6310    1.7650 o         1 MOL     -0.355128
    113 C37        -2.4290    0.9650   -0.9860 c3        1 MOL     -0.495560
    114 C38        -3.3410    0.8040   -2.1310 c         1 MOL      0.645091
    115 N11        -3.8980    1.8960   -2.7070 n         1 MOL     -0.789006
    116 O18        -3.6590   -0.2790   -2.4660 o         1 MOL     -0.466146
    117 H50        -1.3680    0.9210    1.2170 hn        1 MOL      0.171969
    118 H51        -3.1080    2.8410   -0.0200 h1        1 MOL      0.069093
    119 H52        -2.2420   -0.0680   -0.7260 hc        1 MOL      0.206303
    120 H53        -1.4130    1.2950   -1.1860 hc        1 MOL      0.206303
    121 H54        -3.6640    2.8430   -2.4340 hn        1 MOL      0.353967
    122 H55        -4.2380    1.6790   -3.6410 hn        1 MOL      0.353967
    123 N12        -5.3620    1.6190   -0.1200 n         1 MOL     -0.341792
    124 C39        -6.7400    1.0750   -0.0660 c3        1 MOL     -0.032782
    125 C40        -6.7680   -0.4760    0.1060 c         1 MOL      0.449692
    126 O19        -7.5010   -0.9920    0.9420 o         1 MOL     -0.539148
    127 C41        -7.4700    1.2670   -1.3370 c3        1 MOL     -0.089256
    128 C42        -8.1490    2.6200   -1.4560 ca        1 MOL      0.174562
    129 C43        -9.2240    2.8820   -0.6710 ca        1 MOL     -0.226165
    130 C44        -7.8900    3.4030   -2.6290 ca        1 MOL     -0.226165
    131 C45        -9.9710    4.0870   -0.9060 ca        1 MOL     -0.198411
    132 C46        -8.7070    4.5300   -2.8750 ca        1 MOL     -0.198411
    133 C47        -9.6750    4.9520   -1.9660 ca        1 MOL      0.238461
    134 O20       -10.5150    5.9430   -2.3080 oh        1 MOL     -0.484794
    135 H56        -5.1360    2.1740   -0.9350 hn        1 MOL      0.208286
    136 H57        -7.3080    1.4500    0.7870 h1        1 MOL      0.079423
    137 H58        -8.2490    0.5160   -1.4930 hc        1 MOL      0.066437
    138 H59        -6.6940    1.1500   -2.0890 hc        1 MOL      0.066437
    139 H60        -9.4260    2.2610    0.1790 ha        1 MOL      0.159564
    140 H61        -7.2100    3.0040   -3.3620 ha        1 MOL      0.159564
    141 H62       -10.8630    4.3050   -0.3240 ha        1 MOL      0.117333
    142 H63        -8.6680    5.0790   -3.8060 ha        1 MOL      0.117333
    143 H64       -10.2900    6.4280   -3.1130 ho        1 MOL      0.360935
    144 N13        -5.8750   -1.1900   -0.5540 n         1 MOL     -0.332952
    145 C48        -5.7100   -2.6180   -0.5750 c3        1 MOL     -0.094423
    146 C49        -4.8070   -3.2040    0.5610 c         1 MOL      0.445522
    147 O21        -4.7730   -4.4580    0.6530 o         1 MOL     -0.530492
    148 C50        -5.3130   -3.0720   -1.9860 c3        1 MOL     -0.048971
    149 C51        -5.9880   -2.5670   -3.2810 c3        1 MOL     -0.166550
    150 C52        -7.5170   -2.6590   -3.0730 c         1 MOL      0.770452
    151 O22        -8.3070   -1.6720   -3.1280 o         1 MOL     -0.744197
    152 O23        -8.0040   -3.8100   -3.1000 o         1 MOL     -0.744197
    153 H65        -5.2760   -0.6610   -1.1690 hn        1 MOL      0.365775
    154 H66        -6.7030   -3.0540   -0.4780 h1        1 MOL      0.142317
    155 H67        -5.3630   -4.1660   -1.9910 hc        1 MOL      0.050741
    156 H68        -4.2460   -2.8590   -2.0490 hc        1 MOL      0.050741
    157 H69        -5.6140   -3.2740   -4.0260 hc        1 MOL     -0.008101
    158 H70        -5.6870   -1.5910   -3.6430 hc        1 MOL     -0.008101
    159 N14        -4.1400   -2.2960    1.2900 n         1 MOL     -0.130374
    160 C53        -3.2280   -2.6510    2.3930 c3        1 MOL     -0.015406
    161 C54        -3.8830   -2.3490    3.7300 c         1 MOL      0.466962
    162 O24        -3.8370   -3.1440    4.6270 o         1 MOL     -0.568643
    163 C55        -1.9310   -1.9110    2.2750 c3        1 MOL      0.105107
    164 C56        -1.0960   -2.3570    1.1120 c3        1 MOL     -0.162244
    165 C57         0.0420   -1.4410    0.6110 c         1 MOL      0.864730
    166 O25         0.9590   -1.8850   -0.1640 o         1 MOL     -0.801257
    167 O26        -0.0570   -0.1960    0.7510 o         1 MOL     -0.801257
    168 H71        -4.2590   -1.3330    1.0150 hn        1 MOL     -0.009491
    169 H72        -2.9000   -3.6940    2.3910 h1        1 MOL      0.055372
    170 H73        -1.4050   -1.9610    3.2300 hc        1 MOL     -0.020127
    171 H74        -2.2570   -0.8810    2.1250 hc        1 MOL     -0.020127
    172 H75        -1.8010   -2.4270    0.2790 hc        1 MOL      0.025615
    173 H76        -0.6080   -3.3280    1.2660 hc        1 MOL      0.025615
    174 N15        -4.6290   -1.2620    3.7740 n         1 MOL     -0.073350
    175 C58        -5.3820   -0.8460    4.9990 c3        1 MOL     -0.335341
    176 H77        -4.8220   -1.1400    5.8860 h1        1 MOL      0.116249
    177 H78        -5.5130    0.2360    4.9950 h1        1 MOL      0.116249
    178 H79        -6.3580   -1.3310    5.0080 h1        1 MOL      0.116249
    179 H80        -4.6210   -0.7330    2.9170 hn        1 MOL      0.131045
    180 Ca1         2.6090    0.1860    0.0810 Ca        1 MOL      1.774297
    181 O27         2.2850   -0.5500    2.7120 oh        1 MOL     -0.953327
    182 O28         1.3730    1.4590   -2.1100 oh        1 MOL     -0.953327
    183 H81         1.8020   -1.1130    3.3290 ho        1 MOL      0.440661
    184 H82         1.7810    2.3160   -2.2870 ho        1 MOL      0.440661
    185 H83         2.6900    0.1080    3.2730 ho        1 MOL      0.440661
    186 H84         1.6540    0.9010   -2.8400 ho        1 MOL      0.440661
    187 O29         5.2250    0.5640    1.2860 oh        1 MOL     -0.953327
    188 H85         5.0090   -0.3300    1.5770 ho        1 MOL      0.440661
    189 H86         6.0330    0.7800    1.7540 ho        1 MOL      0.440661
@<TRIPOS>BOND
     1    1    2 1   
     2    1    4 1   
     3    1    5 1   
     4    1    6 1   
     5    2    3 2   
     6    2    7 1   
     7    7    8 1   
     8    7   15 1   
     9    8    9 1   
    10    8   11 1   
    11    8   16 1   
    12    9   10 2   
    13    9   19 1   
    14   11   12 1   
    15   11   17 1   
    16   11   18 1   
    17   12   13 1   
    18   12   14 1   
    19   19   20 1   
    20   19   27 1   
    21   20   21 1   
    22   20   23 1   
    23   20   28 1   
    24   21   22 2   
    25   21   38 1   
    26   23   24 1   
    27   23   25 1   
    28   23   29 1   
    29   24   26 1   
    30   24   30 1   
    31   24   31 1   
    32   25   32 1   
    33   25   33 1   
    34   25   34 1   
    35   26   35 1   
    36   26   36 1   
    37   26   37 1   
    38   38   39 1   
    39   38   46 1   
    40   39   40 1   
    41   39   42 1   
    42   39   47 1   
    43   40   41 2   
    44   40   50 1   
    45   42   43 1   
    46   42   48 1   
    47   42   49 1   
    48   43   44 1   
    49   43   45 1   
    50   50   51 1   
    51   50   54 1   
    52   51   52 1   
    53   51   55 1   
    54   51   56 1   
    55   52   53 2   
    56   52   57 1   
    57   57   58 1   
    58   57   65 1   
    59   58   59 1   
    60   58   61 1   
    61   58   66 1   
    62   59   60 2   
    63   59   69 1   
    64   61   62 1   
    65   61   67 1   
    66   61   68 1   
    67   62   63 1   
    68   62   64 1   
    69   69   70 1   
    70   69   73 1   
    71   70   71 1   
    72   70   74 1   
    73   70   75 1   
    74   71   72 2   
    75   71   76 1   
    76   76   77 1   
    77   76   85 1   
    78   77   78 1   
    79   77   80 1   
    80   77   86 1   
    81   78   79 2   
    82   78   93 1   
    83   80   81 1   
    84   80   87 1   
    85   80   88 1   
    86   81   82 1   
    87   81   89 1   
    88   81   90 1   
    89   82   83 1   
    90   82   84 2   
    91   83   91 1   
    92   83   92 1   
    93   93   94 1   
    94   93  100 1   
    95   94   95 1   
    96   94   97 1   
    97   94  101 1   
    98   95   96 2   
    99   95  109 1   
   100   97   98 1   
   101   97   99 1   
   102   97  102 1   
   103   98  103 1   
   104   98  104 1   
   105   98  105 1   
   106   99  106 1   
   107   99  107 1   
   108   99  108 1   
   109  109  110 1   
   110  109  117 1   
   111  110  111 1   
   112  110  113 1   
   113  110  118 1   
   114  111  112 2   
   115  111  123 1   
   116  113  114 1   
   117  113  119 1   
   118  113  120 1   
   119  114  115 1   
   120  114  116 2   
   121  115  121 1   
   122  115  122 1   
   123  123  124 1   
   124  123  135 1   
   125  124  125 1   
   126  124  127 1   
   127  124  136 1   
   128  125  126 2   
   129  125  144 1   
   130  127  128 1   
   131  127  137 1   
   132  127  138 1   
   133  128  129 ar  
   134  128  130 ar  
   135  129  131 ar  
   136  129  139 1   
   137  130  132 ar  
   138  130  140 1   
   139  131  133 ar  
   140  131  141 1   
   141  132  133 ar  
   142  132  142 1   
   143  133  134 1   
   144  134  143 1   
   145  144  145 1   
   146  144  153 1   
   147  145  146 1   
   148  145  148 1   
   149  145  154 1   
   150  146  147 2   
   151  146  159 1   
   152  148  149 1   
   153  148  155 1   
   154  148  156 1   
   155  149  150 1   
   156  149  157 1   
   157  149  158 1   
   158  150  151 1   
   159  150  152 1   
   160  159  160 1   
   161  159  168 1   
   162  160  161 1   
   163  160  163 1   
   164  160  169 1   
   165  161  162 2   
   166  161  174 1   
   167  163  164 1   
   168  163  170 1   
   169  163  171 1   
   170  164  165 1   
   171  164  172 1   
   172  164  173 1   
   173  165  166 1   
   174  165  167 1   
   175  174  175 1   
   176  174  179 1   
   177  175  176 1   
   178  175  177 1   
   179  175  178 1   
   180  181  183 1   
   181  181  185 1   
   182  182  184 1   
   183  182  186 1   
   184  187  188 1   
   185  187  189 1   
@<TRIPOS>SUBSTRUCTURE
     1 MOL         1 TEMP              0 ****  ****    0 ROOT
