@<TRIPOS>MOLECULE
MOL
  172   171     1     0     0
SMALL
resp


@<TRIPOS>ATOM
      1 C1          0.6140    5.0010    4.7960 c3        1 MOL     -0.320154
      2 C2         -0.0760    4.6160    3.4900 c         1 MOL      0.736672
      3 O1          0.4330    4.9170    2.4210 o         1 MOL     -0.579137
      4 H1          1.6040    5.4000    4.5780 hc        1 MOL      0.068084
      5 H2          0.0220    5.7580    5.3100 hc        1 MOL      0.068084
      6 H3          0.7090    4.1210    5.4310 hc        1 MOL      0.068084
      7 N1         -1.2830    4.1410    3.5330 n         1 MOL     -0.585509
      8 C3         -2.0970    3.8020    2.3520 c3        1 MOL      0.124986
      9 C4         -2.6720    5.0010    1.6350 c         1 MOL      0.676990
     10 O2         -2.7750    6.0470    2.2670 o         1 MOL     -0.549595
     11 C5         -3.0490    2.6670    2.7630 c3        1 MOL     -0.191028
     12 C6         -4.0280    2.3190    1.6590 c         1 MOL      0.557079
     13 O3         -3.5880    1.8560    0.5470 o         1 MOL     -0.627544
     14 O4         -5.2440    2.3910    1.9360 o         1 MOL     -0.627544
     15 H4         -1.6160    3.8650    4.4480 hn        1 MOL      0.295224
     16 H5         -1.4250    3.3260    1.6330 h1        1 MOL      0.055854
     17 H6         -3.4930    3.0770    3.6670 hc        1 MOL      0.041816
     18 H7         -2.5400    1.7820    3.1420 hc        1 MOL      0.041816
     19 N2         -3.0530    4.7720    0.3040 n         1 MOL     -0.652434
     20 C7         -3.8920    5.6740   -0.4300 c3        1 MOL      0.318400
     21 C8         -4.8370    4.9810   -1.4240 c         1 MOL      0.390915
     22 O5         -5.6310    5.6530   -2.1580 o         1 MOL     -0.545159
     23 C9         -2.9200    6.5820   -1.1930 c3        1 MOL     -0.365959
     24 H8         -2.6800    3.9380   -0.1310 hn        1 MOL      0.370018
     25 H9         -4.3990    6.3540    0.2630 h1        1 MOL      0.029939
     26 H10        -3.5570    7.1630   -1.8610 hc        1 MOL      0.095273
     27 H11        -2.2560    7.1640   -0.5530 hc        1 MOL      0.095273
     28 H12        -2.3770    6.0660   -1.9810 hc        1 MOL      0.095273
     29 N3         -4.7710    3.5970   -1.6360 n         1 MOL     -0.386236
     30 C10        -5.2800    2.9290   -2.7660 c3        1 MOL      0.395062
     31 C11        -6.3310    1.8450   -2.5150 c         1 MOL      0.369432
     32 O6         -7.1160    1.5750   -3.3990 o         1 MOL     -0.541062
     33 C12        -4.2150    2.2640   -3.6510 c3        1 MOL     -0.400917
     34 C13        -3.4770    1.1670   -2.9100 c         1 MOL      0.953138
     35 O7         -2.2410    1.2390   -2.8650 o         1 MOL     -0.816391
     36 O8         -3.9360    0.2410   -2.2390 o         1 MOL     -0.816391
     37 H13        -4.2090    3.0480   -1.0140 hn        1 MOL      0.182524
     38 H14        -5.8610    3.6170   -3.3820 h1        1 MOL      0.016905
     39 H15        -3.6250    3.0950   -4.0330 hc        1 MOL      0.077292
     40 H16        -4.7110    1.7540   -4.4790 hc        1 MOL      0.077292
     41 N4         -6.6000    1.3940   -1.2440 n         1 MOL     -0.341684
     42 C14        -7.7500    0.4880   -0.9510 c3        1 MOL     -0.230091
     43 C15        -7.6010   -0.9930   -1.2620 c         1 MOL      0.498789
     44 O9         -8.5390   -1.7270   -0.9640 o         1 MOL     -0.609148
     45 H17        -5.9740    1.5580   -0.4680 hn        1 MOL      0.218373
     46 H18        -8.6120    0.8900   -1.4820 h1        1 MOL      0.137198
     47 H19        -7.9790    0.6450    0.0990 h1        1 MOL      0.137198
     48 N5         -6.4140   -1.4860   -1.6510 n         1 MOL     -0.192839
     49 C16        -6.1230   -2.9120   -1.8580 c3        1 MOL     -0.100091
     50 C17        -5.8890   -3.6810   -0.5050 c         1 MOL      0.496986
     51 O10        -5.6910   -4.8600   -0.6030 o         1 MOL     -0.536132
     52 C18        -4.9200   -3.1860   -2.7970 c3        1 MOL      0.016232
     53 C19        -3.5610   -2.8100   -2.3010 c         1 MOL      0.601257
     54 N6         -2.5580   -3.0300   -3.0330 n         1 MOL     -0.600709
     55 O11        -3.4130   -2.1910   -1.2450 o         1 MOL     -0.608056
     56 H20        -5.7060   -0.7950   -1.8270 hn        1 MOL      0.219616
     57 H21        -7.0030   -3.3050   -2.3580 h1        1 MOL      0.111929
     58 H22        -5.1760   -2.6730   -3.7310 hc        1 MOL      0.009393
     59 H23        -4.9260   -4.2390   -3.0650 hc        1 MOL      0.009393
     60 H24        -2.7020   -3.4860   -3.9210 hn        1 MOL      0.306863
     61 H25        -1.6490   -2.7050   -2.7480 hn        1 MOL      0.306863
     62 N7         -5.8860   -3.0380    0.6270 n         1 MOL     -0.261926
     63 C20        -5.8400   -3.6880    1.9660 c3        1 MOL     -0.139024
     64 C21        -4.4420   -4.2110    2.3660 c         1 MOL      0.436896
     65 O12        -4.2650   -5.0100    3.2610 o         1 MOL     -0.541868
     66 H26        -6.0980   -2.0470    0.6330 hn        1 MOL      0.250699
     67 H27        -6.6220   -4.4360    1.8720 h1        1 MOL      0.092684
     68 H28        -6.1340   -3.0570    2.8040 h1        1 MOL      0.092684
     69 N8         -3.4300   -3.7460    1.6420 n         1 MOL     -0.137328
     70 C22        -2.0140   -4.1760    1.8890 c3        1 MOL     -0.367662
     71 C23        -1.0950   -3.0250    1.8070 c         1 MOL      0.625044
     72 O13        -1.1890   -2.1200    0.9880 o         1 MOL     -0.455362
     73 C24        -1.5850   -5.2870    0.9000 c3        1 MOL      0.535769
     74 C25        -2.3220   -6.5650    1.0350 c3        1 MOL     -0.546211
     75 O14        -1.9330   -4.9360   -0.4100 oh        1 MOL     -0.546224
     76 H29        -3.6180   -3.0630    0.9190 hn        1 MOL      0.226042
     77 H30        -2.0000   -4.4960    2.9290 h1        1 MOL      0.137315
     78 H31        -0.5110   -5.4260    0.9600 h1        1 MOL     -0.020426
     79 H32        -1.8600   -3.9770   -0.5230 ho        1 MOL      0.263727
     80 H33        -2.1390   -6.8400    2.0790 hc        1 MOL      0.138110
     81 H34        -3.3890   -6.4780    0.8220 hc        1 MOL      0.138110
     82 H35        -1.8870   -7.3090    0.3700 hc        1 MOL      0.138110
     83 N9         -0.1050   -3.1770    2.6450 n         1 MOL     -0.610702
     84 C26         1.1690   -2.4670    2.4750 c3        1 MOL     -0.044818
     85 C27         1.8130   -2.9340    1.1030 c         1 MOL      0.526119
     86 O15         2.2410   -4.0830    0.9530 o         1 MOL     -0.571340
     87 C28         2.1220   -2.5440    3.7040 c3        1 MOL      0.280316
     88 C29         1.2960   -2.1560    4.9710 c3        1 MOL     -0.067769
     89 C30         3.3930   -1.6940    3.4380 c3        1 MOL     -0.293174
     90 C31         2.1260   -2.2830    6.2960 c3        1 MOL     -0.158638
     91 H36        -0.0490   -4.0620    3.1330 hn        1 MOL      0.336729
     92 H37         0.8440   -1.4400    2.3480 h1        1 MOL      0.153686
     93 H38         2.3610   -3.6050    3.7500 hc        1 MOL     -0.051593
     94 H39         0.4430   -2.8150    4.9670 hc        1 MOL      0.024346
     95 H40         0.9420   -1.1300    4.8390 hc        1 MOL      0.024346
     96 H41         4.2080   -1.8180    4.1530 hc        1 MOL      0.055353
     97 H42         3.7330   -2.0500    2.4670 hc        1 MOL      0.055353
     98 H43         3.0940   -0.6470    3.3290 hc        1 MOL      0.055353
     99 H44         2.3590   -3.3410    6.4340 hc        1 MOL      0.036241
    100 H45         3.0200   -1.6610    6.2470 hc        1 MOL      0.036241
    101 H46         1.6050   -1.9180    7.1900 hc        1 MOL      0.036241
    102 N10         1.8290   -1.9950    0.1530 n         1 MOL     -0.108479
    103 C32         2.6620   -2.0290   -1.0400 c3        1 MOL     -0.048070
    104 C33         4.1030   -1.4170   -0.8860 c         1 MOL      0.435965
    105 O16         4.2650   -0.6480    0.0890 o         1 MOL     -0.328586
    106 C34         1.9240   -1.3320   -2.2560 c3        1 MOL     -0.205369
    107 C35         0.5840   -1.9490   -2.6540 c         1 MOL      0.701816
    108 O17        -0.4360   -1.4840   -2.0400 o         1 MOL     -0.649561
    109 O18         0.5340   -2.6620   -3.6530 o         1 MOL     -0.649561
    110 H47         1.2950   -1.1560    0.3270 hn        1 MOL      0.010111
    111 H48         2.7960   -3.0580   -1.3650 h1        1 MOL      0.066461
    112 H49         2.5470   -1.3490   -3.1570 hc        1 MOL      0.055677
    113 H50         1.8200   -0.2620   -2.0730 hc        1 MOL      0.055677
    114 N11         5.2110   -1.7200   -1.6090 n         1 MOL     -0.525708
    115 C36         6.5720   -1.3010   -1.3930 c3        1 MOL      0.281365
    116 C37         6.5560    0.2480   -1.1090 c         1 MOL      0.178390
    117 O19         7.0510    0.6420   -0.0480 o         1 MOL     -0.457365
    118 C38         7.5820   -1.8540   -2.3560 c3        1 MOL     -0.304594
    119 C39         8.9850   -1.5170   -2.1200 ca        1 MOL      0.124662
    120 C40         9.6680   -2.3430   -1.2690 ca        1 MOL     -0.106831
    121 C41         9.6020   -0.5550   -2.9040 ca        1 MOL     -0.106831
    122 C42        11.0670   -2.2430   -1.2360 ca        1 MOL     -0.187073
    123 C43        11.0220   -0.4650   -2.8080 ca        1 MOL     -0.187073
    124 C44        11.7720   -1.3010   -1.9290 ca        1 MOL     -0.031733
    125 H51         5.0330   -2.4170   -2.3240 hn        1 MOL      0.291254
    126 H52         6.8150   -1.7320   -0.4130 h1        1 MOL      0.071672
    127 H53         7.3380   -1.5970   -3.3920 hc        1 MOL      0.088393
    128 H54         7.5370   -2.9410   -2.3060 hc        1 MOL      0.088393
    129 H55         9.1080   -2.9650   -0.5820 ha        1 MOL      0.115108
    130 H56         8.9940   -0.0140   -3.6160 ha        1 MOL      0.115108
    131 H57        11.5630   -2.8620   -0.4950 ha        1 MOL      0.117706
    132 H58        11.4010    0.3230   -3.4370 ha        1 MOL      0.117706
    133 H59        12.8490   -1.3050   -1.9350 ha        1 MOL      0.090878
    134 N12         6.0020    1.1170   -1.9630 n         1 MOL      0.059353
    135 C45         5.9870    2.6010   -1.6620 c3        1 MOL     -0.129303
    136 C46         5.4190    2.9510   -0.2820 c         1 MOL      0.458302
    137 O20         5.8360    3.9550    0.2220 o         1 MOL     -0.532636
    138 C47         5.3090    3.1660   -2.9570 c3        1 MOL     -0.037242
    139 C48         5.5470    2.1170   -4.0440 c3        1 MOL      0.033219
    140 C49         5.4760    0.8160   -3.3100 c3        1 MOL     -0.088223
    141 H60         7.0290    2.9130   -1.5670 h1        1 MOL      0.089061
    142 H61         4.2280    3.2140   -2.8090 hc        1 MOL      0.047142
    143 H62         5.6200    4.1480   -3.2980 hc        1 MOL      0.047142
    144 H63         4.8200    2.1950   -4.8480 hc        1 MOL      0.007266
    145 H64         6.5410    2.2470   -4.4680 hc        1 MOL      0.007266
    146 H65         4.4390    0.4940   -3.2410 h1        1 MOL      0.052212
    147 H66         6.0050    0.0140   -3.8390 h1        1 MOL      0.052212
    148 N13         4.4960    2.1930    0.2510 n         1 MOL     -0.184326
    149 C50         3.9370    2.3900    1.6310 c3        1 MOL     -0.027034
    150 C51         4.7840    1.9210    2.7230 c         1 MOL      0.467704
    151 O21         4.8670    2.5620    3.7950 o         1 MOL     -0.571498
    152 C52         2.4980    1.7410    1.6760 c3        1 MOL     -0.158969
    153 C53         1.6660    2.1000    0.4700 c3        1 MOL      0.116500
    154 C54         0.2920    1.5400    0.4510 c         1 MOL      0.848380
    155 O22        -0.5990    2.1380   -0.1580 o         1 MOL     -0.812801
    156 O23         0.0340    0.4300    0.9490 o         1 MOL     -0.812801
    157 H67         4.3240    1.3450   -0.2580 hn        1 MOL      0.182707
    158 H68         3.9270    3.4710    1.7990 h1        1 MOL      0.101503
    159 H69         1.8850    1.9660    2.5590 hc        1 MOL      0.049174
    160 H70         2.6540    0.6720    1.7280 hc        1 MOL      0.049174
    161 H71         2.2310    1.6990   -0.3730 hc        1 MOL     -0.036528
    162 H72         1.6740    3.1800    0.3320 hc        1 MOL     -0.036528
    163 N14         5.5460    0.8280    2.4900 n         1 MOL     -0.025576
    164 C55         6.7850    0.4050    3.2060 c3        1 MOL     -0.260687
    165 H73         7.5270    1.2020    3.1520 h1        1 MOL      0.093215
    166 H74         6.5490    0.2000    4.2510 h1        1 MOL      0.093215
    167 H75         7.1860   -0.4950    2.7410 h1        1 MOL      0.093215
    168 H76         5.4860    0.4940    1.5360 hn        1 MOL      0.056545
    169 Ca1        -2.0570   -0.0890   -0.5310 Ca        1 MOL      1.736983
    170 O24        -3.7590   -1.0300    1.4990 oh        1 MOL     -0.928050
    171 H77        -4.6550   -0.6870    1.5800 ho        1 MOL      0.431024
    172 H78        -3.6320   -1.5470    2.2890 ho        1 MOL      0.431024
@<TRIPOS>BOND
     1    1    2 1   
     2    1    4 1   
     3    1    5 1   
     4    1    6 1   
     5    2    3 2   
     6    2    7 1   
     7    7    8 1   
     8    7   15 1   
     9    8    9 1   
    10    8   11 1   
    11    8   16 1   
    12    9   10 2   
    13    9   19 1   
    14   11   12 1   
    15   11   17 1   
    16   11   18 1   
    17   12   13 1   
    18   12   14 1   
    19   19   20 1   
    20   19   24 1   
    21   20   21 1   
    22   20   23 1   
    23   20   25 1   
    24   21   22 2   
    25   21   29 1   
    26   23   26 1   
    27   23   27 1   
    28   23   28 1   
    29   29   30 1   
    30   29   37 1   
    31   30   31 1   
    32   30   33 1   
    33   30   38 1   
    34   31   32 2   
    35   31   41 1   
    36   33   34 1   
    37   33   39 1   
    38   33   40 1   
    39   34   35 1   
    40   34   36 1   
    41   41   42 1   
    42   41   45 1   
    43   42   43 1   
    44   42   46 1   
    45   42   47 1   
    46   43   44 2   
    47   43   48 1   
    48   48   49 1   
    49   48   56 1   
    50   49   50 1   
    51   49   52 1   
    52   49   57 1   
    53   50   51 2   
    54   50   62 1   
    55   52   53 1   
    56   52   58 1   
    57   52   59 1   
    58   53   54 1   
    59   53   55 2   
    60   54   60 1   
    61   54   61 1   
    62   62   63 1   
    63   62   66 1   
    64   63   64 1   
    65   63   67 1   
    66   63   68 1   
    67   64   65 2   
    68   64   69 1   
    69   69   70 1   
    70   69   76 1   
    71   70   71 1   
    72   70   73 1   
    73   70   77 1   
    74   71   72 2   
    75   71   83 1   
    76   73   74 1   
    77   73   75 1   
    78   73   78 1   
    79   74   80 1   
    80   74   81 1   
    81   74   82 1   
    82   75   79 1   
    83   83   84 1   
    84   83   91 1   
    85   84   85 1   
    86   84   87 1   
    87   84   92 1   
    88   85   86 2   
    89   85  102 1   
    90   87   88 1   
    91   87   89 1   
    92   87   93 1   
    93   88   90 1   
    94   88   94 1   
    95   88   95 1   
    96   89   96 1   
    97   89   97 1   
    98   89   98 1   
    99   90   99 1   
   100   90  100 1   
   101   90  101 1   
   102  102  103 1   
   103  102  110 1   
   104  103  104 1   
   105  103  106 1   
   106  103  111 1   
   107  104  105 2   
   108  104  114 1   
   109  106  107 1   
   110  106  112 1   
   111  106  113 1   
   112  107  108 1   
   113  107  109 1   
   114  114  115 1   
   115  114  125 1   
   116  115  116 1   
   117  115  118 1   
   118  115  126 1   
   119  116  117 2   
   120  116  134 1   
   121  118  119 1   
   122  118  127 1   
   123  118  128 1   
   124  119  120 ar  
   125  119  121 ar  
   126  120  122 ar  
   127  120  129 1   
   128  121  123 ar  
   129  121  130 1   
   130  122  124 ar  
   131  122  131 1   
   132  123  124 ar  
   133  123  132 1   
   134  124  133 1   
   135  134  135 1   
   136  134  140 1   
   137  135  136 1   
   138  135  138 1   
   139  135  141 1   
   140  136  137 2   
   141  136  148 1   
   142  138  139 1   
   143  138  142 1   
   144  138  143 1   
   145  139  140 1   
   146  139  144 1   
   147  139  145 1   
   148  140  146 1   
   149  140  147 1   
   150  148  149 1   
   151  148  157 1   
   152  149  150 1   
   153  149  152 1   
   154  149  158 1   
   155  150  151 2   
   156  150  163 1   
   157  152  153 1   
   158  152  159 1   
   159  152  160 1   
   160  153  154 1   
   161  153  161 1   
   162  153  162 1   
   163  154  155 1   
   164  154  156 1   
   165  163  164 1   
   166  163  168 1   
   167  164  165 1   
   168  164  166 1   
   169  164  167 1   
   170  170  171 1   
   171  170  172 1   
@<TRIPOS>SUBSTRUCTURE
     1 MOL         1 TEMP              0 ****  ****    0 ROOT
