@<TRIPOS>MOLECULE
MOL
  189   185     1     0     0
SMALL
resp


@<TRIPOS>ATOM
      1 C1          0.3920    1.9980    5.9600 c3        1 MOL     -0.406665
      2 C2         -0.0940    2.0400    4.4760 c         1 MOL      0.737396
      3 O1          0.6020    2.5990    3.6320 o         1 MOL     -0.658180
      4 H1          0.3990    3.0090    6.3690 hc        1 MOL      0.102733
      5 H2         -0.2820    1.3740    6.5470 hc        1 MOL      0.102733
      6 H3          1.4000    1.5840    6.0020 hc        1 MOL      0.102733
      7 N1         -1.2990    1.5400    4.2180 n         1 MOL     -0.595797
      8 C3         -1.9280    1.5770    2.8670 c3        1 MOL      0.226296
      9 C4         -2.1760    3.0500    2.4290 c         1 MOL      0.373335
     10 O2         -2.8500    3.7600    3.1650 o         1 MOL     -0.541741
     11 C5         -3.1960    0.7020    2.8170 c3        1 MOL     -0.270977
     12 C6         -3.7820    0.5570    1.4020 c         1 MOL      0.860606
     13 O3         -3.1440    0.9050    0.3540 o         1 MOL     -0.733166
     14 O4         -4.7800   -0.1410    1.2930 o         1 MOL     -0.733166
     15 H4         -1.7940    1.1000    4.9740 hn        1 MOL      0.328357
     16 H5         -1.2220    1.1740    2.1480 h1        1 MOL      0.014336
     17 H6         -3.9480    1.2550    3.3860 hc        1 MOL      0.069856
     18 H7         -3.0370   -0.2960    3.2260 hc        1 MOL      0.069856
     19 N2         -1.7600    3.4490    1.2250 n         1 MOL     -0.124176
     20 C7         -1.8820    4.7910    0.7580 c3        1 MOL      0.140597
     21 C8         -2.8740    4.8900   -0.3880 c         1 MOL      0.460494
     22 O5         -3.3330    6.0210   -0.6310 o         1 MOL     -0.574209
     23 C9         -0.5160    5.3800    0.2940 c3        1 MOL     -0.395341
     24 C10         0.4810    5.7280    1.4930 c3        1 MOL      0.259264
     25 C11        -0.0530    6.6240    2.5490 c3        1 MOL     -0.069342
     26 C12         0.9570    7.1450    3.5210 c3        1 MOL     -0.050317
     27 N3          1.2820    6.1100    4.5290 n4        1 MOL     -0.325193
     28 H8         -1.3300    2.7880    0.5830 hn        1 MOL      0.135087
     29 H9         -2.3430    5.4430    1.5030 h1        1 MOL      0.013888
     30 H10        -0.7040    6.3150   -0.2330 hc        1 MOL      0.111067
     31 H11        -0.0030    4.6130   -0.2960 hc        1 MOL      0.111067
     32 H12         1.3170    6.2650    1.0500 hc        1 MOL     -0.037037
     33 H13         0.9130    4.8420    1.9520 hc        1 MOL     -0.037037
     34 H14        -0.8320    6.1600    3.1520 hc        1 MOL      0.059915
     35 H15        -0.4380    7.4240    1.9080 hc        1 MOL      0.059915
     36 H16         0.5430    8.0510    3.9490 hx        1 MOL      0.087709
     37 H17         1.8630    7.3650    2.9610 hx        1 MOL      0.087709
     38 H18         0.4520    5.8190    5.0110 hn        1 MOL      0.324972
     39 H19         1.6880    5.3000    4.0970 hn        1 MOL      0.324972
     40 H20         1.8490    6.4960    5.2740 hn        1 MOL      0.324972
     41 N4         -3.0650    3.8240   -1.1700 n         1 MOL     -0.282565
     42 C13        -3.9110    3.9210   -2.3850 c3        1 MOL      0.117545
     43 C14        -5.2110    3.2280   -2.1830 c         1 MOL      0.442947
     44 O6         -6.1190    3.3910   -2.9880 o         1 MOL     -0.549669
     45 C15        -3.1340    3.5940   -3.6840 c3        1 MOL     -0.212876
     46 C16        -2.3970    2.2670   -3.8070 c         1 MOL      0.718691
     47 O7         -1.6950    1.9670   -4.8110 o         1 MOL     -0.684505
     48 O8         -2.6200    1.4030   -2.8670 o         1 MOL     -0.684505
     49 H21        -2.7210    2.9160   -0.8890 hn        1 MOL      0.151111
     50 H22        -4.1920    4.9760   -2.4060 h1        1 MOL      0.066432
     51 H23        -2.4680    4.4240   -3.9200 hc        1 MOL      0.051397
     52 H24        -3.8760    3.7290   -4.4660 hc        1 MOL      0.051397
     53 N5         -5.2920    2.3520   -1.2000 n         1 MOL     -0.048156
     54 C17        -6.4070    2.0660   -0.4960 c3        1 MOL     -0.307926
     55 C18        -7.2220    0.8500   -1.1070 c         1 MOL      0.604584
     56 O9         -8.4060    0.7610   -0.8630 o         1 MOL     -0.583526
     57 H25        -4.4470    1.9100   -0.8470 hn        1 MOL      0.016020
     58 H26        -7.0460    2.9470   -0.4670 h1        1 MOL      0.124395
     59 H27        -6.1570    1.8220    0.5320 h1        1 MOL      0.124395
     60 N6         -6.5550   -0.0810   -1.7910 n         1 MOL     -0.394142
     61 C19        -6.9550   -1.4090   -2.2910 c3        1 MOL      0.102651
     62 C20        -7.2430   -2.4410   -1.1700 c         1 MOL      0.382357
     63 O10        -7.8230   -3.5130   -1.3590 o         1 MOL     -0.547863
     64 C21        -5.8430   -1.9730   -3.1530 c3        1 MOL     -0.368318
     65 C22        -4.3990   -1.7840   -2.6050 c         1 MOL      0.771460
     66 O11        -4.2890   -1.6920   -1.3860 o         1 MOL     -0.724382
     67 O12        -3.4120   -1.5860   -3.3360 o         1 MOL     -0.724382
     68 H28        -5.5560    0.0150   -1.8800 hn        1 MOL      0.264702
     69 H29        -7.8660   -1.3750   -2.8970 h1        1 MOL      0.088797
     70 H30        -5.8150   -1.3580   -4.0580 hc        1 MOL      0.098454
     71 H31        -5.9870   -3.0110   -3.4230 hc        1 MOL      0.098454
     72 N7         -6.7990   -2.1020    0.0300 n         1 MOL     -0.186917
     73 C23        -6.8170   -2.9030    1.2580 c3        1 MOL     -0.146429
     74 C24        -5.6000   -3.7670    1.4810 c         1 MOL      0.568432
     75 O13        -5.8040   -4.8420    2.0750 o         1 MOL     -0.572291
     76 H32        -6.3000   -1.2230    0.0720 hn        1 MOL      0.251060
     77 H33        -7.6430   -3.6060    1.1430 h1        1 MOL      0.093894
     78 H34        -7.0800   -2.2990    2.1200 h1        1 MOL      0.093894
     79 N8         -4.4030   -3.3170    1.0430 n         1 MOL     -0.408238
     80 C25        -3.1200   -4.0400    1.3190 c3        1 MOL     -0.004716
     81 C26        -1.9220   -3.1530    1.2920 c         1 MOL      0.515934
     82 O14        -1.9180   -2.0190    0.8240 o         1 MOL     -0.616713
     83 C27        -2.8550   -5.1940    0.3890 c3        1 MOL      0.367080
     84 C28        -3.6910   -6.4820    0.3990 c3        1 MOL     -0.469353
     85 O15        -2.9520   -4.6430   -0.9220 oh        1 MOL     -0.617489
     86 H35        -4.3170   -2.5060    0.4400 hn        1 MOL      0.357080
     87 H36        -3.2250   -4.5770    2.2610 h1        1 MOL      0.053629
     88 H37        -1.8270   -5.5000    0.5650 h1        1 MOL      0.031411
     89 H38        -3.8960   -4.4950   -0.9820 ho        1 MOL      0.416497
     90 H39        -4.7130   -6.1800    0.1560 hc        1 MOL      0.129702
     91 H40        -3.3960   -7.0920   -0.4670 hc        1 MOL      0.129702
     92 H41        -3.4700   -6.9870    1.3330 hc        1 MOL      0.129702
     93 N9         -0.7670   -3.7450    1.6500 n         1 MOL     -0.444872
     94 C29         0.4990   -3.0510    1.7940 c3        1 MOL      0.052507
     95 C30         1.5150   -3.7310    0.8460 c         1 MOL      0.461266
     96 O16         1.7170   -4.9090    1.0590 o         1 MOL     -0.539382
     97 C31         1.0240   -2.9880    3.2520 c3        1 MOL      0.167522
     98 C32         0.0280   -2.6270    4.4030 c3        1 MOL      0.199545
     99 C33         2.1860   -1.9910    3.2690 c3        1 MOL     -0.415353
    100 C34         0.5690   -2.9180    5.8120 c3        1 MOL     -0.305730
    101 H42        -0.9450   -4.5970    2.1640 hn        1 MOL      0.251188
    102 H43         0.3200   -2.0220    1.4990 h1        1 MOL      0.072194
    103 H44         1.3420   -4.0080    3.4260 hc        1 MOL     -0.011834
    104 H45        -0.8950   -3.1980    4.3620 hc        1 MOL     -0.035604
    105 H46        -0.1880   -1.5680    4.3900 hc        1 MOL     -0.035604
    106 H47         2.7550   -1.9490    4.1890 hc        1 MOL      0.076677
    107 H48         2.8790   -2.1450    2.4430 hc        1 MOL      0.076677
    108 H49         1.8210   -0.9760    3.0760 hc        1 MOL      0.076677
    109 H50        -0.2490   -2.6670    6.5000 hc        1 MOL      0.071515
    110 H51         0.9990   -3.9100    5.8980 hc        1 MOL      0.071515
    111 H52         1.3780   -2.2620    6.1170 hc        1 MOL      0.071515
    112 N10         2.1200   -3.0060   -0.0890 n         1 MOL     -0.157648
    113 C35         3.2700   -3.3520   -0.9720 c3        1 MOL     -0.065305
    114 C36         4.6360   -2.9390   -0.3460 c         1 MOL      0.367447
    115 O17         4.6480   -2.1650    0.5220 o         1 MOL     -0.261309
    116 C37         3.1930   -2.6100   -2.3290 c3        1 MOL      0.200880
    117 C38         2.1910   -3.1850   -3.3570 c3        1 MOL     -0.421870
    118 O18         2.7450   -1.2690   -2.0250 oh        1 MOL     -0.574357
    119 H53         1.7970   -2.0740   -0.3190 hn        1 MOL      0.143637
    120 H54         3.2390   -4.4340   -1.0710 h1        1 MOL      0.058258
    121 H55         4.1360   -2.6400   -2.8760 h1        1 MOL      0.071762
    122 H56         1.8470   -1.3850   -1.7310 ho        1 MOL      0.394620
    123 H57         2.1430   -2.5510   -4.2350 hc        1 MOL      0.119519
    124 H58         2.6050   -4.1320   -3.7240 hc        1 MOL      0.119519
    125 H59         1.2090   -3.4090   -2.9400 hc        1 MOL      0.119519
    126 N11         5.7600   -3.3640   -0.9760 n         1 MOL     -0.285056
    127 C39         7.1200   -3.0830   -0.4600 c3        1 MOL     -0.188765
    128 C40         7.4930   -1.5660   -0.3510 c         1 MOL      0.465734
    129 O19         8.0410   -1.1380    0.6440 o         1 MOL     -0.488028
    130 C41         8.1220   -3.8250   -1.3670 c3        1 MOL      0.264480
    131 C42         8.1950   -5.3140   -1.0010 c3        1 MOL     -0.238543
    132 O20         7.7110   -3.6610   -2.7420 oh        1 MOL     -0.649153
    133 H60         5.6800   -3.8590   -1.8520 hn        1 MOL      0.264615
    134 H61         7.3330   -3.5870    0.4790 h1        1 MOL      0.139966
    135 H62         9.0990   -3.3780   -1.1670 h1        1 MOL      0.043359
    136 H63         8.4390   -3.9120   -3.3080 ho        1 MOL      0.419764
    137 H64         8.6950   -5.3930   -0.0260 hc        1 MOL      0.072484
    138 H65         7.1980   -5.7290   -0.8920 hc        1 MOL      0.072484
    139 H66         8.8590   -5.8350   -1.6980 hc        1 MOL      0.072484
    140 N12         6.9860   -0.7560   -1.2680 n         1 MOL     -0.324303
    141 C43         7.0700    0.6820   -1.2560 c3        1 MOL      0.008783
    142 C44         6.3080    1.3020   -0.0790 c         1 MOL      0.295137
    143 O21         6.7650    2.1640    0.6230 o         1 MOL     -0.491880
    144 C45         6.7780    1.3160   -2.6260 c3        1 MOL     -0.002359
    145 C46         6.9840    2.8060   -2.7850 c3        1 MOL     -0.208961
    146 C47         6.5050    3.3120   -4.1750 c3        1 MOL      0.000626
    147 C48         6.3010    4.8230   -4.1820 c3        1 MOL      0.093674
    148 N13         5.5920    5.2860   -5.3870 n4        1 MOL     -0.449835
    149 H67         6.4660   -1.1730   -2.0280 hn        1 MOL      0.209446
    150 H68         8.1060    0.9170   -1.0130 h1        1 MOL      0.094966
    151 H69         5.7340    1.1210   -2.8470 hc        1 MOL      0.035256
    152 H70         7.3900    0.8000   -3.3700 hc        1 MOL      0.035256
    153 H71         8.0710    2.9150   -2.7700 hc        1 MOL      0.091283
    154 H72         6.5150    3.3770   -1.9680 hc        1 MOL      0.091283
    155 H73         5.4950    2.9710   -4.4210 hc        1 MOL      0.041880
    156 H74         7.2300    2.9610   -4.9080 hc        1 MOL      0.041880
    157 H75         7.3000    5.2670   -4.1380 hx        1 MOL      0.074784
    158 H76         5.7040    5.1430   -3.3340 hx        1 MOL      0.074784
    159 H77         4.7680    4.7220   -5.5350 hn        1 MOL      0.352869
    160 H78         5.2190    6.2010   -5.1990 hn        1 MOL      0.352869
    161 H79         6.1810    5.2800   -6.2090 hn        1 MOL      0.352869
    162 N14         5.0940    0.8170    0.1430 n         1 MOL     -0.063290
    163 C49         4.1710    1.3530    1.1820 c3        1 MOL     -0.173067
    164 C50         4.7030    1.0410    2.5420 c         1 MOL      0.406441
    165 O22         4.5900    1.8740    3.4480 o         1 MOL     -0.567246
    166 C51         2.7430    0.8430    1.0220 c3        1 MOL     -0.055717
    167 C52         2.0180    1.4510   -0.1690 c3        1 MOL     -0.133750
    168 C53         0.6690    0.7100   -0.3650 c         1 MOL      0.611707
    169 O23        -0.3960    1.3520   -0.3920 o         1 MOL     -0.625214
    170 O24         0.7080   -0.5410   -0.6190 o         1 MOL     -0.625214
    171 H80         4.6640    0.1440   -0.4790 hn        1 MOL      0.211994
    172 H81         4.1570    2.4420    1.0740 h1        1 MOL      0.101615
    173 H82         2.2450    1.0870    1.9620 hc        1 MOL      0.116397
    174 H83         2.7770   -0.2250    0.8740 hc        1 MOL      0.116397
    175 H84         2.5820    1.2050   -1.0590 hc        1 MOL      0.008805
    176 H85         1.9690    2.5150    0.0310 hc        1 MOL      0.008805
    177 N15         5.3200   -0.1190    2.6450 n         1 MOL      0.086196
    178 C54         5.9160   -0.6130    3.8230 c3        1 MOL     -0.272737
    179 H86         5.7900    0.1140    4.6250 h1        1 MOL      0.091161
    180 H87         5.4400   -1.5510    4.1060 h1        1 MOL      0.091161
    181 H88         6.9790   -0.7830    3.6500 h1        1 MOL      0.091161
    182 H89         5.2180   -0.8030    1.9060 hn        1 MOL      0.048103
    183 Ca1        -1.9220   -0.4980   -1.2670 Ca        1 MOL      1.731392
    184 O25        -0.1640   -0.0540   -3.4700 oh        1 MOL     -0.835364
    185 H90        -0.6500    0.6170   -3.9530 ho        1 MOL      0.384511
    186 H91         0.3560   -0.4930   -4.1420 ho        1 MOL      0.384511
    187 O26        -1.1990   -2.9760   -1.9710 oh        1 MOL     -0.835364
    188 H92        -0.9910   -3.3280   -2.8350 ho        1 MOL      0.384511
    189 H93        -1.6280   -3.6990   -1.5160 ho        1 MOL      0.384511
@<TRIPOS>BOND
     1    1    2 1   
     2    1    4 1   
     3    1    5 1   
     4    1    6 1   
     5    2    3 2   
     6    2    7 1   
     7    7    8 1   
     8    7   15 1   
     9    8    9 1   
    10    8   11 1   
    11    8   16 1   
    12    9   10 2   
    13    9   19 1   
    14   11   12 1   
    15   11   17 1   
    16   11   18 1   
    17   12   13 1   
    18   12   14 1   
    19   19   20 1   
    20   19   28 1   
    21   20   21 1   
    22   20   23 1   
    23   20   29 1   
    24   21   22 2   
    25   21   41 1   
    26   23   24 1   
    27   23   30 1   
    28   23   31 1   
    29   24   25 1   
    30   24   32 1   
    31   24   33 1   
    32   25   26 1   
    33   25   34 1   
    34   25   35 1   
    35   26   27 1   
    36   26   36 1   
    37   26   37 1   
    38   27   38 1   
    39   27   39 1   
    40   27   40 1   
    41   41   42 1   
    42   41   49 1   
    43   42   43 1   
    44   42   45 1   
    45   42   50 1   
    46   43   44 2   
    47   43   53 1   
    48   45   46 1   
    49   45   51 1   
    50   45   52 1   
    51   46   47 1   
    52   46   48 1   
    53   53   54 1   
    54   53   57 1   
    55   54   55 1   
    56   54   58 1   
    57   54   59 1   
    58   55   56 2   
    59   55   60 1   
    60   60   61 1   
    61   60   68 1   
    62   61   62 1   
    63   61   64 1   
    64   61   69 1   
    65   62   63 2   
    66   62   72 1   
    67   64   65 1   
    68   64   70 1   
    69   64   71 1   
    70   65   66 1   
    71   65   67 1   
    72   72   73 1   
    73   72   76 1   
    74   73   74 1   
    75   73   77 1   
    76   73   78 1   
    77   74   75 2   
    78   74   79 1   
    79   79   80 1   
    80   79   86 1   
    81   80   81 1   
    82   80   83 1   
    83   80   87 1   
    84   81   82 2   
    85   81   93 1   
    86   83   84 1   
    87   83   85 1   
    88   83   88 1   
    89   84   90 1   
    90   84   91 1   
    91   84   92 1   
    92   85   89 1   
    93   93   94 1   
    94   93  101 1   
    95   94   95 1   
    96   94   97 1   
    97   94  102 1   
    98   95   96 2   
    99   95  112 1   
   100   97   98 1   
   101   97   99 1   
   102   97  103 1   
   103   98  100 1   
   104   98  104 1   
   105   98  105 1   
   106   99  106 1   
   107   99  107 1   
   108   99  108 1   
   109  100  109 1   
   110  100  110 1   
   111  100  111 1   
   112  112  113 1   
   113  112  119 1   
   114  113  114 1   
   115  113  116 1   
   116  113  120 1   
   117  114  115 2   
   118  114  126 1   
   119  116  117 1   
   120  116  118 1   
   121  116  121 1   
   122  117  123 1   
   123  117  124 1   
   124  117  125 1   
   125  118  122 1   
   126  126  127 1   
   127  126  133 1   
   128  127  128 1   
   129  127  130 1   
   130  127  134 1   
   131  128  129 2   
   132  128  140 1   
   133  130  131 1   
   134  130  132 1   
   135  130  135 1   
   136  131  137 1   
   137  131  138 1   
   138  131  139 1   
   139  132  136 1   
   140  140  141 1   
   141  140  149 1   
   142  141  142 1   
   143  141  144 1   
   144  141  150 1   
   145  142  143 2   
   146  142  162 1   
   147  144  145 1   
   148  144  151 1   
   149  144  152 1   
   150  145  146 1   
   151  145  153 1   
   152  145  154 1   
   153  146  147 1   
   154  146  155 1   
   155  146  156 1   
   156  147  148 1   
   157  147  157 1   
   158  147  158 1   
   159  148  159 1   
   160  148  160 1   
   161  148  161 1   
   162  162  163 1   
   163  162  171 1   
   164  163  164 1   
   165  163  166 1   
   166  163  172 1   
   167  164  165 2   
   168  164  177 1   
   169  166  167 1   
   170  166  173 1   
   171  166  174 1   
   172  167  168 1   
   173  167  175 1   
   174  167  176 1   
   175  168  169 1   
   176  168  170 1   
   177  177  178 1   
   178  177  182 1   
   179  178  179 1   
   180  178  180 1   
   181  178  181 1   
   182  184  185 1   
   183  184  186 1   
   184  187  188 1   
   185  187  189 1   
@<TRIPOS>SUBSTRUCTURE
     1 MOL         1 TEMP              0 ****  ****    0 ROOT
