@<TRIPOS>MOLECULE
MOL
  183   181     1     0     0
SMALL
resp


@<TRIPOS>ATOM
      1 C1         -1.0060    2.6470    6.0810 c3        1 MOL     -0.223924
      2 C2         -1.3790    2.7190    4.5940 c         1 MOL      0.770758
      3 O1         -0.5230    3.1010    3.7890 o         1 MOL     -0.596240
      4 H1          0.0750    2.7270    6.1880 hc        1 MOL      0.046370
      5 H2         -1.4850    3.4660    6.6170 hc        1 MOL      0.046370
      6 H3         -1.3430    1.6950    6.4950 hc        1 MOL      0.046370
      7 N1         -2.6260    2.3690    4.2490 n         1 MOL     -0.711369
      8 C3         -3.0190    2.0360    2.8810 c3        1 MOL      0.307816
      9 C4         -3.3380    3.2730    2.0520 c         1 MOL      0.583987
     10 O2         -4.1880    4.0860    2.3410 o         1 MOL     -0.628230
     11 C5         -4.1900    0.9770    2.8140 c3        1 MOL     -0.317232
     12 C6         -4.6710    0.5750    1.3950 c         1 MOL      0.832176
     13 O3         -5.8300    0.1810    1.2130 o         1 MOL     -0.706852
     14 O4         -3.9630    0.8940    0.4210 o         1 MOL     -0.706852
     15 H4         -3.1280    1.8410    4.9580 hn        1 MOL      0.328444
     16 H5         -2.2070    1.5630    2.3290 h1        1 MOL     -0.033499
     17 H6         -5.0360    1.2930    3.4300 hc        1 MOL      0.046066
     18 H7         -3.7450    0.0380    3.1690 hc        1 MOL      0.046066
     19 N2         -2.5730    3.5870    0.9680 n         1 MOL      0.018850
     20 C7         -2.5550    4.8160    0.2560 c3        1 MOL     -0.013531
     21 C8         -3.3750    4.7570   -0.9800 c         1 MOL      0.357521
     22 O5         -4.0560    5.7860   -1.3000 o         1 MOL     -0.579686
     23 C9         -1.0850    5.1430    0.0260 c3        1 MOL      0.188720
     24 C10        -0.0800    5.0570    1.2070 c3        1 MOL      0.127071
     25 C11        -0.7390    6.5240   -0.6290 c3        1 MOL     -0.213063
     26 C12        -0.5770    5.9200    2.3870 c3        1 MOL     -0.381133
     27 H8         -1.7830    2.9820    0.8040 hn        1 MOL      0.040456
     28 H9         -2.8890    5.5660    0.9710 h1        1 MOL      0.048799
     29 H10        -0.7080    4.3210   -0.5870 hc        1 MOL     -0.036861
     30 H11         0.9070    5.3790    0.8830 hc        1 MOL      0.019086
     31 H12         0.0680    4.0040    1.4600 hc        1 MOL      0.019086
     32 H13         0.3390    6.6000   -0.8070 hc        1 MOL      0.033035
     33 H14        -1.1950    6.5890   -1.6150 hc        1 MOL      0.033035
     34 H15        -1.0460    7.3750   -0.0140 hc        1 MOL      0.033035
     35 H16        -1.6230    5.7870    2.6550 hc        1 MOL      0.075807
     36 H17        -0.0110    5.6990    3.2820 hc        1 MOL      0.075807
     37 H18        -0.2020    6.9370    2.2700 hc        1 MOL      0.075807
     38 N3         -3.4900    3.6200   -1.6830 n         1 MOL     -0.280473
     39 C13        -4.4670    3.5630   -2.8280 c3        1 MOL      0.171945
     40 C14        -5.7600    2.9140   -2.3650 c         1 MOL      0.292241
     41 O6         -6.6470    2.6880   -3.1530 o         1 MOL     -0.517291
     42 C15        -3.8010    2.8010   -4.0130 c3        1 MOL     -0.345250
     43 C16        -3.3140    1.3780   -3.7530 c         1 MOL      0.917697
     44 O7         -3.3880    0.9270   -2.6240 o         1 MOL     -0.755185
     45 O8         -2.8000    0.7200   -4.6740 o         1 MOL     -0.755185
     46 H19        -3.0290    2.7590   -1.4600 hn        1 MOL      0.203556
     47 H20        -4.6290    4.5410   -3.2790 h1        1 MOL      0.084131
     48 H21        -2.9990    3.4230   -4.4010 hc        1 MOL      0.065074
     49 H22        -4.5960    2.7630   -4.7680 hc        1 MOL      0.065074
     50 N4         -5.9170    2.4550   -1.1200 n         1 MOL     -0.026241
     51 C17        -7.3100    2.1180   -0.6360 c3        1 MOL     -0.441083
     52 C18        -7.8790    0.8150   -1.1280 c         1 MOL      0.600583
     53 O9         -9.0920    0.6140   -1.3230 o         1 MOL     -0.623886
     54 H23        -5.1030    2.5190   -0.5270 hn        1 MOL      0.117580
     55 H24        -7.9700    2.9250   -0.9540 h1        1 MOL      0.168656
     56 H25        -7.2710    2.0600    0.4550 h1        1 MOL      0.168656
     57 N5         -7.0080   -0.1900   -1.2470 n         1 MOL     -0.235736
     58 C19        -7.3680   -1.5080   -1.7830 c3        1 MOL      0.087669
     59 C20        -7.5560   -2.5520   -0.7170 c         1 MOL      0.392523
     60 O10        -8.2960   -3.5590   -0.9670 o         1 MOL     -0.589118
     61 C21        -6.3310   -2.0550   -2.8460 c3        1 MOL     -0.177677
     62 C22        -4.8840   -2.0410   -2.3790 c         1 MOL      0.744224
     63 O11        -3.9350   -2.4400   -3.1310 o         1 MOL     -0.711950
     64 O12        -4.6460   -1.8750   -1.1810 o         1 MOL     -0.711950
     65 H26        -6.0610   -0.0720   -0.9210 hn        1 MOL      0.186635
     66 H27        -8.3590   -1.4210   -2.2340 h1        1 MOL      0.074192
     67 H28        -6.4120   -1.4510   -3.7480 hc        1 MOL      0.036612
     68 H29        -6.6190   -3.0700   -3.1320 hc        1 MOL      0.036612
     69 N6         -7.0300   -2.3650    0.5110 n         1 MOL     -0.121981
     70 C23        -7.2430   -3.3250    1.6470 c3        1 MOL     -0.115557
     71 C24        -5.8750   -3.9470    2.1150 c         1 MOL      0.570541
     72 O13        -5.7940   -4.8270    2.9190 o         1 MOL     -0.591282
     73 H30        -6.4670   -1.5370    0.6540 hn        1 MOL      0.156140
     74 H31        -7.9000   -4.1080    1.2710 h1        1 MOL      0.063920
     75 H32        -7.6460   -2.7610    2.4940 h1        1 MOL      0.063920
     76 N7         -4.7480   -3.5730    1.4370 n         1 MOL     -0.236904
     77 C25        -3.3910   -4.1470    1.7410 c3        1 MOL      0.012466
     78 C26        -2.3170   -3.0600    1.7860 c         1 MOL      0.618261
     79 O14        -2.5480   -1.9030    1.4570 o         1 MOL     -0.701427
     80 C27        -3.0980   -5.3840    0.8620 c3        1 MOL     -0.185305
     81 C28        -3.3430   -5.2310   -0.6890 c3        1 MOL     -0.203316
     82 C29        -2.1810   -4.5980   -1.3940 c         1 MOL      0.629501
     83 N8         -1.5490   -5.2460   -2.3890 n         1 MOL     -0.773990
     84 O15        -1.9160   -3.4170   -1.1690 o         1 MOL     -0.570384
     85 H33        -4.8100   -2.8900    0.6970 hn        1 MOL      0.191217
     86 H34        -3.3910   -4.5350    2.7630 h1        1 MOL      0.044397
     87 H35        -3.8370   -6.0990    1.2130 hc        1 MOL      0.066274
     88 H36        -2.0840   -5.6760    1.1030 hc        1 MOL      0.066274
     89 H37        -4.2610   -4.6870   -0.9170 hc        1 MOL      0.089854
     90 H38        -3.4530   -6.2550   -1.0600 hc        1 MOL      0.089854
     91 H39        -1.8450   -6.1920   -2.5210 hn        1 MOL      0.364658
     92 H40        -0.8780   -4.7070   -2.9150 hn        1 MOL      0.364658
     93 N9         -1.0870   -3.4610    2.0980 n         1 MOL     -0.386772
     94 C30         0.0670   -2.5580    2.2560 c3        1 MOL     -0.007422
     95 C31         1.2650   -3.1560    1.4450 c         1 MOL      0.500243
     96 O16         1.6040   -4.2720    1.7270 o         1 MOL     -0.563324
     97 C32         0.4010   -2.4270    3.7680 c3        1 MOL      0.258334
     98 C33         1.5830   -1.4820    4.0880 c3        1 MOL     -0.287877
     99 C34        -0.7330   -1.8000    4.5880 c3        1 MOL     -0.287877
    100 H41        -0.9720   -4.3970    2.4480 hn        1 MOL      0.273968
    101 H42        -0.2160   -1.5400    1.9870 h1        1 MOL      0.104444
    102 H43         0.5670   -3.4220    4.1720 hc        1 MOL     -0.033953
    103 H44         1.7890   -1.2400    5.1270 hc        1 MOL      0.059666
    104 H45         2.4900   -1.9630    3.7260 hc        1 MOL      0.059666
    105 H46         1.5450   -0.4950    3.6360 hc        1 MOL      0.059666
    106 H47        -0.8470   -0.8020    4.1750 hc        1 MOL      0.059666
    107 H48        -1.6290   -2.4140    4.6160 hc        1 MOL      0.059666
    108 H49        -0.4530   -1.7580    5.6450 hc        1 MOL      0.059666
    109 N10         1.6880   -2.5440    0.3370 n         1 MOL     -0.414998
    110 C35         2.9100   -2.9330   -0.3430 c3        1 MOL      0.435763
    111 C36         4.2030   -2.3100    0.2340 c         1 MOL      0.202455
    112 O17         4.1130   -1.5010    1.2010 o         1 MOL     -0.331312
    113 C37         2.7020   -2.7470   -1.8400 c3        1 MOL     -0.362293
    114 C38         3.3100   -1.5280   -2.4700 c         1 MOL      0.745302
    115 N11         2.6470   -0.5010   -2.2830 n         1 MOL     -0.895962
    116 O18         4.4390   -1.6190   -2.9740 o         1 MOL     -0.635792
    117 H50         1.2790   -1.6530    0.0740 hn        1 MOL      0.136816
    118 H51         2.9850   -4.0120   -0.3350 h1        1 MOL     -0.002887
    119 H52         1.6350   -2.7810   -2.0720 hc        1 MOL      0.093672
    120 H53         3.2380   -3.5170   -2.3930 hc        1 MOL      0.093672
    121 H54         1.8860   -0.5540   -1.6250 hn        1 MOL      0.451534
    122 H55         2.8720    0.3020   -2.8640 hn        1 MOL      0.451534
    123 N12         5.4300   -2.6860   -0.2440 n         1 MOL     -0.434127
    124 C39         6.6720   -2.0950    0.3080 c3        1 MOL      0.137690
    125 C40         6.7270   -0.5630    0.3200 c         1 MOL      0.444213
    126 O19         7.1840    0.0340    1.2470 o         1 MOL     -0.513129
    127 C41         7.7840   -2.7080   -0.4810 c3        1 MOL     -0.215344
    128 C42         9.0730   -1.9880   -0.2830 ca        1 MOL     -0.003946
    129 C43         9.6130   -1.8100    0.9720 ca        1 MOL     -0.145402
    130 C44         9.6560   -1.4320   -1.4040 ca        1 MOL     -0.145402
    131 C45        10.9270   -1.1770    1.0350 ca        1 MOL     -0.231850
    132 C46        10.9480   -0.8250   -1.3300 ca        1 MOL     -0.231850
    133 C47        11.6110   -0.7630   -0.0960 ca        1 MOL      0.320776
    134 O20        12.8590   -0.1940   -0.0260 oh        1 MOL     -0.552597
    135 H56         5.5120   -3.3260   -1.0220 hn        1 MOL      0.273927
    136 H57         6.8020   -2.5150    1.3000 h1        1 MOL      0.064054
    137 H58         7.5660   -2.6540   -1.5400 hc        1 MOL      0.091436
    138 H59         7.8660   -3.7400   -0.1300 hc        1 MOL      0.091436
    139 H60         9.1330   -2.1290    1.8900 ha        1 MOL      0.133806
    140 H61         9.1350   -1.4560   -2.3510 ha        1 MOL      0.133806
    141 H62        11.3720   -0.9900    2.0090 ha        1 MOL      0.130326
    142 H63        11.5480   -0.4260   -2.1320 ha        1 MOL      0.130326
    143 H64        13.0890    0.2450   -0.8470 ho        1 MOL      0.393895
    144 N13         6.2190    0.1190   -0.7220 n         1 MOL      0.029160
    145 C48         6.4540    1.5520   -0.8440 c3        1 MOL     -0.170018
    146 C49         5.5410    2.2170    0.1330 c         1 MOL      0.302184
    147 O21         5.7130    3.3620    0.4700 o         1 MOL     -0.487294
    148 C50         6.2110    1.9480   -2.3020 c3        1 MOL      0.172254
    149 C51         6.8660    0.9860   -3.3290 c3        1 MOL     -0.319247
    150 C52         6.9250    1.5450   -4.7280 c         1 MOL      0.749648
    151 O22         7.9140    1.2780   -5.4550 o         1 MOL     -0.748647
    152 O23         6.0000    2.2550   -5.2030 o         1 MOL     -0.748647
    153 H65         5.9520   -0.3880   -1.5550 hn        1 MOL      0.152038
    154 H66         7.5060    1.7920   -0.6750 h1        1 MOL      0.108779
    155 H67         6.5390    2.9850   -2.4360 hc        1 MOL     -0.009575
    156 H68         5.1550    1.8760   -2.5170 hc        1 MOL     -0.009575
    157 H69         6.4270   -0.0100   -3.3510 hc        1 MOL      0.048406
    158 H70         7.9080    0.8710   -3.0410 hc        1 MOL      0.048406
    159 N14         4.3760    1.5880    0.5020 n         1 MOL     -0.087278
    160 C53         3.4800    2.1700    1.4950 c3        1 MOL      0.011393
    161 C54         4.0020    1.9980    2.9270 c         1 MOL      0.427750
    162 O24         3.8990    2.9720    3.6690 o         1 MOL     -0.552164
    163 C55         2.0840    1.4720    1.2670 c3        1 MOL     -0.202100
    164 C56         1.4500    1.6980   -0.1110 c3        1 MOL      0.290836
    165 C57         0.2210    0.8950   -0.3240 c         1 MOL      0.751890
    166 O25        -0.9020    1.4800   -0.3900 o         1 MOL     -0.754583
    167 O26         0.2980   -0.2620   -0.6840 o         1 MOL     -0.754583
    168 H71         4.2020    0.6370    0.2370 hn        1 MOL      0.103085
    169 H72         3.4500    3.2440    1.3270 h1        1 MOL      0.083523
    170 H73         1.3910    1.8750    2.0130 hc        1 MOL      0.054440
    171 H74         2.0940    0.4000    1.4720 hc        1 MOL      0.054440
    172 H75         2.1130    1.5330   -0.9490 hc        1 MOL     -0.120765
    173 H76         1.1520    2.7550   -0.0810 hc        1 MOL     -0.120765
    174 N15         4.6590    0.8640    3.2180 n         1 MOL     -0.020218
    175 C58         5.4610    0.7080    4.4230 c3        1 MOL     -0.143368
    176 H77         6.4940    0.4980    4.1460 h1        1 MOL      0.058043
    177 H78         5.4220    1.6270    5.0080 h1        1 MOL      0.058043
    178 H79         5.0690   -0.1190    5.0170 h1        1 MOL      0.058043
    179 H80         4.6720    0.1670    2.4850 hn        1 MOL      0.030008
    180 Ca1        -2.2870   -0.6960   -0.9670 Ca        1 MOL      1.775584
    181 O27        -1.1760   -1.0540   -3.5920 oh        1 MOL     -0.901174
    182 H81        -1.6800   -0.4900   -4.1860 ho        1 MOL      0.414124
    183 H82        -0.8970   -1.7880   -4.1310 ho        1 MOL      0.414124
@<TRIPOS>BOND
     1    1    2 1   
     2    1    4 1   
     3    1    5 1   
     4    1    6 1   
     5    2    3 2   
     6    2    7 1   
     7    7    8 1   
     8    7   15 1   
     9    8    9 1   
    10    8   11 1   
    11    8   16 1   
    12    9   10 2   
    13    9   19 1   
    14   11   12 1   
    15   11   17 1   
    16   11   18 1   
    17   12   13 1   
    18   12   14 1   
    19   19   20 1   
    20   19   27 1   
    21   20   21 1   
    22   20   23 1   
    23   20   28 1   
    24   21   22 2   
    25   21   38 1   
    26   23   24 1   
    27   23   25 1   
    28   23   29 1   
    29   24   26 1   
    30   24   30 1   
    31   24   31 1   
    32   25   32 1   
    33   25   33 1   
    34   25   34 1   
    35   26   35 1   
    36   26   36 1   
    37   26   37 1   
    38   38   39 1   
    39   38   46 1   
    40   39   40 1   
    41   39   42 1   
    42   39   47 1   
    43   40   41 2   
    44   40   50 1   
    45   42   43 1   
    46   42   48 1   
    47   42   49 1   
    48   43   44 1   
    49   43   45 1   
    50   50   51 1   
    51   50   54 1   
    52   51   52 1   
    53   51   55 1   
    54   51   56 1   
    55   52   53 2   
    56   52   57 1   
    57   57   58 1   
    58   57   65 1   
    59   58   59 1   
    60   58   61 1   
    61   58   66 1   
    62   59   60 2   
    63   59   69 1   
    64   61   62 1   
    65   61   67 1   
    66   61   68 1   
    67   62   63 1   
    68   62   64 1   
    69   69   70 1   
    70   69   73 1   
    71   70   71 1   
    72   70   74 1   
    73   70   75 1   
    74   71   72 2   
    75   71   76 1   
    76   76   77 1   
    77   76   85 1   
    78   77   78 1   
    79   77   80 1   
    80   77   86 1   
    81   78   79 2   
    82   78   93 1   
    83   80   81 1   
    84   80   87 1   
    85   80   88 1   
    86   81   82 1   
    87   81   89 1   
    88   81   90 1   
    89   82   83 1   
    90   82   84 2   
    91   83   91 1   
    92   83   92 1   
    93   93   94 1   
    94   93  100 1   
    95   94   95 1   
    96   94   97 1   
    97   94  101 1   
    98   95   96 2   
    99   95  109 1   
   100   97   98 1   
   101   97   99 1   
   102   97  102 1   
   103   98  103 1   
   104   98  104 1   
   105   98  105 1   
   106   99  106 1   
   107   99  107 1   
   108   99  108 1   
   109  109  110 1   
   110  109  117 1   
   111  110  111 1   
   112  110  113 1   
   113  110  118 1   
   114  111  112 2   
   115  111  123 1   
   116  113  114 1   
   117  113  119 1   
   118  113  120 1   
   119  114  115 1   
   120  114  116 2   
   121  115  121 1   
   122  115  122 1   
   123  123  124 1   
   124  123  135 1   
   125  124  125 1   
   126  124  127 1   
   127  124  136 1   
   128  125  126 2   
   129  125  144 1   
   130  127  128 1   
   131  127  137 1   
   132  127  138 1   
   133  128  129 ar  
   134  128  130 ar  
   135  129  131 ar  
   136  129  139 1   
   137  130  132 ar  
   138  130  140 1   
   139  131  133 ar  
   140  131  141 1   
   141  132  133 ar  
   142  132  142 1   
   143  133  134 1   
   144  134  143 1   
   145  144  145 1   
   146  144  153 1   
   147  145  146 1   
   148  145  148 1   
   149  145  154 1   
   150  146  147 2   
   151  146  159 1   
   152  148  149 1   
   153  148  155 1   
   154  148  156 1   
   155  149  150 1   
   156  149  157 1   
   157  149  158 1   
   158  150  151 1   
   159  150  152 1   
   160  159  160 1   
   161  159  168 1   
   162  160  161 1   
   163  160  163 1   
   164  160  169 1   
   165  161  162 2   
   166  161  174 1   
   167  163  164 1   
   168  163  170 1   
   169  163  171 1   
   170  164  165 1   
   171  164  172 1   
   172  164  173 1   
   173  165  166 1   
   174  165  167 1   
   175  174  175 1   
   176  174  179 1   
   177  175  176 1   
   178  175  177 1   
   179  175  178 1   
   180  181  182 1   
   181  181  183 1   
@<TRIPOS>SUBSTRUCTURE
     1 MOL         1 TEMP              0 ****  ****    0 ROOT
