@<TRIPOS>MOLECULE
MOL
  189   185     1     0     0
SMALL
resp


@<TRIPOS>ATOM
      1 C1         -0.3680    0.9750    6.5140 c3        1 MOL     -0.280931
      2 C2         -0.7370    0.9630    5.0040 c         1 MOL      0.716225
      3 O1          0.1400    1.2190    4.1800 o         1 MOL     -0.610867
      4 H1          0.5430    0.3970    6.6690 hc        1 MOL      0.072773
      5 H2         -0.2060    2.0020    6.8420 hc        1 MOL      0.072773
      6 H3         -1.1800    0.5330    7.0910 hc        1 MOL      0.072773
      7 N1         -1.9990    0.7400    4.6620 n         1 MOL     -0.630433
      8 C3         -2.5700    0.8630    3.3090 c3        1 MOL      0.228641
      9 C4         -2.9130    2.3300    3.1440 c         1 MOL      0.508196
     10 O2         -3.8230    2.8670    3.7850 o         1 MOL     -0.560961
     11 C5         -3.8110   -0.0550    3.1040 c3        1 MOL     -0.155208
     12 C6         -4.4240    0.0080    1.6940 c         1 MOL      0.715152
     13 O3         -5.5710   -0.4280    1.5740 o         1 MOL     -0.658649
     14 O4         -3.8870    0.6280    0.7210 o         1 MOL     -0.658649
     15 H4         -2.6980    0.6430    5.3840 hn        1 MOL      0.329946
     16 H5         -1.9260    0.4310    2.5390 h1        1 MOL      0.004415
     17 H6         -4.5650    0.0770    3.8770 hc        1 MOL      0.028157
     18 H7         -3.4370   -1.0720    3.2030 hc        1 MOL      0.028157
     19 N2         -2.1190    3.0200    2.2970 n         1 MOL      0.016265
     20 C7         -2.0280    4.4670    2.3300 c3        1 MOL     -0.274883
     21 C8         -2.9250    5.2240    1.4080 c         1 MOL      0.695880
     22 O5         -2.9930    6.4470    1.5220 o         1 MOL     -0.585289
     23 C9         -0.5460    4.8140    1.9900 c3        1 MOL     -0.083459
     24 C10        -0.2280    4.3630    0.5170 c3        1 MOL      0.442365
     25 C11         1.1940    4.5590    0.1210 c3        1 MOL     -0.147466
     26 C12         1.3380    4.0760   -1.3140 c3        1 MOL      0.296039
     27 N3          2.7200    4.4580   -1.8300 n4        1 MOL     -0.392458
     28 H8         -1.5460    2.4370    1.7020 hn        1 MOL     -0.033291
     29 H9         -2.2700    4.9180    3.2920 h1        1 MOL      0.125461
     30 H10         0.1070    4.3050    2.7000 hc        1 MOL      0.046648
     31 H11        -0.3460    5.8840    2.0970 hc        1 MOL      0.046648
     32 H12        -0.8870    4.9920   -0.0850 hc        1 MOL     -0.108364
     33 H13        -0.5990    3.3780    0.2460 hc        1 MOL     -0.108364
     34 H14         1.9000    3.9590    0.6950 hc        1 MOL     -0.012520
     35 H15         1.3730    5.6310    0.2340 hc        1 MOL     -0.012520
     36 H16         0.6100    4.5510   -1.9670 hx        1 MOL      0.008315
     37 H17         1.2150    2.9890   -1.3290 hx        1 MOL      0.008315
     38 H18         3.4500    4.1580   -1.1990 hn        1 MOL      0.306339
     39 H19         2.8850    3.9640   -2.7020 hn        1 MOL      0.306339
     40 H20         2.8310    5.4390   -2.0190 hn        1 MOL      0.306339
     41 N4         -3.5190    4.4350    0.5290 n         1 MOL     -0.343620
     42 C13        -4.1750    4.8570   -0.6300 c3        1 MOL     -0.022463
     43 C14        -5.5500    4.1240   -0.7190 c         1 MOL      0.437843
     44 O6         -6.4730    4.6190   -1.4330 o         1 MOL     -0.518502
     45 C15        -3.3330    4.8570   -1.9050 c3        1 MOL     -0.152133
     46 C16        -2.5450    3.5770   -2.1960 c         1 MOL      0.865689
     47 O7         -2.0000    3.5350   -3.3220 o         1 MOL     -0.736611
     48 O8         -2.5720    2.5830   -1.3310 o         1 MOL     -0.736611
     49 H21        -3.2480    3.4600    0.5680 hn        1 MOL     -0.074978
     50 H22        -4.3550    5.9110   -0.3920 h1        1 MOL      0.092780
     51 H23        -2.6770    5.7240   -1.8640 hc        1 MOL      0.063605
     52 H24        -3.8930    4.9690   -2.8260 hc        1 MOL      0.063605
     53 N5         -5.7180    2.9030   -0.1670 n         1 MOL     -0.001820
     54 C17        -7.0050    2.2430   -0.1600 c3        1 MOL     -0.399889
     55 C18        -7.3180    1.3850   -1.3450 c         1 MOL      0.742219
     56 O9         -7.9800    1.8560   -2.2610 o         1 MOL     -0.534455
     57 H25        -4.9440    2.3720    0.2040 hn        1 MOL      0.201188
     58 H26        -7.8040    2.9810   -0.0460 h1        1 MOL      0.127037
     59 H27        -7.0410    1.5920    0.7130 h1        1 MOL      0.127037
     60 N6         -6.8270    0.1730   -1.3350 n         1 MOL     -0.558686
     61 C19        -7.0790   -0.9910   -2.2580 c3        1 MOL      0.074289
     62 C20        -7.0260   -2.4120   -1.5230 c         1 MOL      0.320748
     63 O10        -7.0970   -3.4400   -2.2490 o         1 MOL     -0.485215
     64 C21        -5.9250   -1.0440   -3.2880 c3        1 MOL     -0.098533
     65 C22        -4.5430   -0.8050   -2.7510 c         1 MOL      0.671742
     66 O11        -3.9740    0.2980   -2.9730 o         1 MOL     -0.704611
     67 O12        -3.9250   -1.6010   -2.0120 o         1 MOL     -0.704611
     68 H28        -6.2020   -0.0170   -0.5640 hn        1 MOL      0.268812
     69 H29        -8.0530   -0.7990   -2.7090 h1        1 MOL      0.097517
     70 H30        -6.2100   -0.2230   -3.9600 hc        1 MOL      0.045766
     71 H31        -5.9800   -1.9520   -3.8900 hc        1 MOL      0.045766
     72 N7         -6.8910   -2.4570   -0.2120 n         1 MOL     -0.178882
     73 C23        -6.7810   -3.6980    0.4910 c3        1 MOL     -0.141064
     74 C24        -5.4140   -4.4000    0.3170 c         1 MOL      0.485231
     75 O13        -5.4850   -5.6370    0.4960 o         1 MOL     -0.544519
     76 H32        -6.9030   -1.5540    0.2450 hn        1 MOL      0.230882
     77 H33        -7.5570   -4.4340    0.2560 h1        1 MOL      0.108979
     78 H34        -6.8880   -3.4990    1.5510 h1        1 MOL      0.108979
     79 N8         -4.2640   -3.7910   -0.0790 n         1 MOL     -0.185348
     80 C25        -3.0070   -4.4950   -0.2890 c3        1 MOL     -0.353685
     81 C26        -1.8110   -3.5960   -0.0110 c         1 MOL      0.860278
     82 O14        -1.8610   -2.3560   -0.1070 o         1 MOL     -0.716371
     83 C27        -2.8160   -4.8210   -1.7620 c3        1 MOL      0.370740
     84 C28        -4.0250   -5.7170   -2.2110 c3        1 MOL     -0.249418
     85 O15        -2.8910   -3.7610   -2.6940 oh        1 MOL     -0.748861
     86 H35        -4.3270   -2.8280   -0.3740 hn        1 MOL      0.142049
     87 H36        -2.9570   -5.3260    0.4140 h1        1 MOL      0.145731
     88 H37        -1.9810   -5.5150   -1.9120 h1        1 MOL      0.023438
     89 H38        -3.4660   -3.0350   -2.4680 ho        1 MOL      0.530923
     90 H39        -3.7520   -6.2830   -3.1070 hc        1 MOL      0.066789
     91 H40        -4.2660   -6.5120   -1.5180 hc        1 MOL      0.066789
     92 H41        -4.9280   -5.1490   -2.4020 hc        1 MOL      0.066789
     93 N9         -0.7640   -4.1930    0.4820 n         1 MOL     -0.750878
     94 C29         0.5010   -3.5920    0.9060 c3        1 MOL      0.218280
     95 C30         1.6600   -3.8280   -0.1520 c         1 MOL      0.506264
     96 O16         2.0930   -4.9340   -0.3120 o         1 MOL     -0.544379
     97 C31         0.7930   -3.9450    2.3790 c3        1 MOL      0.103114
     98 C32        -0.1620   -3.1050    3.3150 c3        1 MOL     -0.142370
     99 C33         2.2470   -3.9730    2.7010 c3        1 MOL     -0.187618
    100 C34         0.1660   -3.2330    4.7660 c3        1 MOL     -0.124869
    101 H42        -0.8090   -5.2080    0.5260 hn        1 MOL      0.335474
    102 H43         0.3960   -2.5000    0.8980 h1        1 MOL      0.032150
    103 H44         0.4920   -4.9930    2.4130 hc        1 MOL      0.019224
    104 H45        -1.2290   -3.2720    3.1490 hc        1 MOL      0.079502
    105 H46        -0.0980   -2.0810    2.9220 hc        1 MOL      0.079502
    106 H47         2.6810   -2.9720    2.8270 hc        1 MOL      0.032347
    107 H48         2.3310   -4.3730    3.7140 hc        1 MOL      0.032347
    108 H49         2.7700   -4.5280    1.9290 hc        1 MOL      0.032347
    109 H50         0.2240   -4.2270    5.2090 hc        1 MOL      0.038286
    110 H51         1.0320   -2.6350    5.0510 hc        1 MOL      0.038286
    111 H52        -0.5520   -2.6770    5.3710 hc        1 MOL      0.038286
    112 N10         2.0760   -2.7450   -0.7550 n         1 MOL     -0.273065
    113 C35         3.2650   -2.5180   -1.6080 c3        1 MOL     -0.062813
    114 C36         4.6160   -2.4470   -0.8040 c         1 MOL      0.388127
    115 O17         4.6410   -2.6220    0.4800 o         1 MOL     -0.361379
    116 C37         3.0470   -1.3020   -2.4900 c3        1 MOL      0.363056
    117 C38         2.0240   -1.3900   -3.5410 c3        1 MOL     -0.512331
    118 O18         2.8630   -0.0620   -1.7840 oh        1 MOL     -0.674514
    119 H53         1.5620   -1.9370   -0.4310 hn        1 MOL      0.136328
    120 H54         3.3350   -3.3850   -2.2640 h1        1 MOL      0.095549
    121 H55         3.9950   -1.2300   -3.0330 h1        1 MOL     -0.044198
    122 H56         2.0370   -0.1750   -1.3220 ho        1 MOL      0.506912
    123 H57         2.1660   -2.3400   -4.0510 hc        1 MOL      0.132127
    124 H58         1.0670   -1.4190   -3.0300 hc        1 MOL      0.132127
    125 H59         1.9350   -0.5290   -4.2140 hc        1 MOL      0.132127
    126 N11         5.6970   -2.4780   -1.5560 n         1 MOL     -0.333250
    127 C39         7.0950   -2.5120   -0.9800 c3        1 MOL     -0.078905
    128 C40         7.3700   -1.3140   -0.1200 c         1 MOL      0.407425
    129 O19         7.6340   -1.5120    1.0630 o         1 MOL     -0.447787
    130 C41         8.0250   -2.5640   -2.1660 c3        1 MOL      0.183682
    131 C42         7.9800   -4.0420   -2.7540 c3        1 MOL     -0.383456
    132 O20         7.7390   -1.5500   -3.1400 oh        1 MOL     -0.640242
    133 H60         5.6650   -2.5720   -2.5670 hn        1 MOL      0.293368
    134 H61         7.2370   -3.4740   -0.4870 h1        1 MOL      0.144607
    135 H62         9.0330   -2.3960   -1.8030 h1        1 MOL      0.061961
    136 H63         8.2110   -1.8050   -3.9330 ho        1 MOL      0.424083
    137 H64         8.1380   -4.8140   -2.0060 hc        1 MOL      0.121260
    138 H65         6.9990   -4.0890   -3.2240 hc        1 MOL      0.121260
    139 H66         8.8130   -4.2320   -3.4160 hc        1 MOL      0.121260
    140 N12         6.9720   -0.0940   -0.5740 n         1 MOL     -0.285183
    141 C43         7.0180    1.1590    0.2080 c3        1 MOL      0.030812
    142 C44         6.1330    1.1820    1.5070 c         1 MOL      0.357969
    143 O21         6.5390    1.6140    2.5980 o         1 MOL     -0.488390
    144 C45         6.7910    2.4180   -0.7050 c3        1 MOL     -0.228625
    145 C46         8.1430    2.8150   -1.4500 c3        1 MOL      0.384318
    146 C47         7.8020    4.0140   -2.3780 c3        1 MOL     -0.254143
    147 C48         8.5400    4.1340   -3.7900 c3        1 MOL      0.194334
    148 N13         9.9980    4.4170   -3.7060 n4        1 MOL     -0.458729
    149 H67         6.6900    0.0240   -1.5400 hn        1 MOL      0.266193
    150 H68         8.0370    1.2460    0.6040 h1        1 MOL      0.076529
    151 H69         6.5270    3.2210   -0.0180 hc        1 MOL      0.055316
    152 H70         5.9480    2.2590   -1.3790 hc        1 MOL      0.055316
    153 H71         8.4850    1.9480   -2.0090 hc        1 MOL     -0.067412
    154 H72         8.9410    3.0710   -0.7570 hc        1 MOL     -0.067412
    155 H73         7.8990    4.9130   -1.7730 hc        1 MOL      0.072610
    156 H74         6.7620    3.9510   -2.6790 hc        1 MOL      0.072610
    157 H75         8.0310    4.8680   -4.4130 hx        1 MOL      0.046855
    158 H76         8.3880    3.1820   -4.2780 hx        1 MOL      0.046855
    159 H77        10.2970    4.6160   -2.7620 hn        1 MOL      0.322515
    160 H78        10.5560    3.6970   -4.1450 hn        1 MOL      0.322515
    161 H79        10.2700    5.2650   -4.1720 hn        1 MOL      0.322515
    162 N14         4.9170    0.6570    1.4050 n         1 MOL     -0.155387
    163 C49         3.9740    0.5820    2.5240 c3        1 MOL     -0.186581
    164 C50         4.5700   -0.4810    3.5530 c         1 MOL      0.526703
    165 O22         4.4510   -0.3490    4.7520 o         1 MOL     -0.550739
    166 C51         2.6180    0.0840    2.0120 c3        1 MOL     -0.001504
    167 C52         1.7810    1.1330    1.2340 c3        1 MOL      0.073872
    168 C53         0.5850    0.5220    0.5100 c         1 MOL      0.680568
    169 O23         0.7470   -0.2830   -0.3920 o         1 MOL     -0.635779
    170 O24        -0.5540    0.9410    0.7570 o         1 MOL     -0.635779
    171 H80         4.6350    0.2850    0.5140 hn        1 MOL      0.110208
    172 H81         3.8690    1.5630    2.9940 h1        1 MOL      0.144268
    173 H82         2.0050   -0.1820    2.8770 hc        1 MOL      0.054136
    174 H83         2.6860   -0.8510    1.4520 hc        1 MOL      0.054136
    175 H84         2.3620    1.4930    0.3860 hc        1 MOL     -0.037760
    176 H85         1.3650    1.8510    1.9280 hc        1 MOL     -0.037760
    177 N15         5.4180   -1.4730    3.1560 n         1 MOL      0.024747
    178 C54         6.1330   -2.3890    3.9670 c3        1 MOL     -0.325635
    179 H86         6.7890   -2.9920    3.3400 h1        1 MOL      0.112018
    180 H87         6.7300   -1.8400    4.6950 h1        1 MOL      0.112018
    181 H88         5.4310   -3.0390    4.4880 h1        1 MOL      0.112018
    182 H89         5.5020   -1.5210    2.1570 hn        1 MOL      0.043573
    183 Ca1        -2.0660    0.1630   -1.1710 Ca        1 MOL      1.756324
    184 O25        -0.2080    1.5600   -3.2230 oh        1 MOL     -0.943210
    185 H90        -0.1590    1.2050   -4.1090 ho        1 MOL      0.438144
    186 H91        -0.8730    2.2490   -3.2690 ho        1 MOL      0.438144
    187 O26        -1.3190   -1.2950   -3.4470 oh        1 MOL     -0.943210
    188 H92        -1.6470   -2.1820   -3.2770 ho        1 MOL      0.438144
    189 H93        -1.2870   -1.2310   -4.3950 ho        1 MOL      0.438144
@<TRIPOS>BOND
     1    1    2 1   
     2    1    4 1   
     3    1    5 1   
     4    1    6 1   
     5    2    3 2   
     6    2    7 1   
     7    7    8 1   
     8    7   15 1   
     9    8    9 1   
    10    8   11 1   
    11    8   16 1   
    12    9   10 2   
    13    9   19 1   
    14   11   12 1   
    15   11   17 1   
    16   11   18 1   
    17   12   13 1   
    18   12   14 1   
    19   19   20 1   
    20   19   28 1   
    21   20   21 1   
    22   20   23 1   
    23   20   29 1   
    24   21   22 2   
    25   21   41 1   
    26   23   24 1   
    27   23   30 1   
    28   23   31 1   
    29   24   25 1   
    30   24   32 1   
    31   24   33 1   
    32   25   26 1   
    33   25   34 1   
    34   25   35 1   
    35   26   27 1   
    36   26   36 1   
    37   26   37 1   
    38   27   38 1   
    39   27   39 1   
    40   27   40 1   
    41   41   42 1   
    42   41   49 1   
    43   42   43 1   
    44   42   45 1   
    45   42   50 1   
    46   43   44 2   
    47   43   53 1   
    48   45   46 1   
    49   45   51 1   
    50   45   52 1   
    51   46   47 1   
    52   46   48 1   
    53   53   54 1   
    54   53   57 1   
    55   54   55 1   
    56   54   58 1   
    57   54   59 1   
    58   55   56 2   
    59   55   60 1   
    60   60   61 1   
    61   60   68 1   
    62   61   62 1   
    63   61   64 1   
    64   61   69 1   
    65   62   63 2   
    66   62   72 1   
    67   64   65 1   
    68   64   70 1   
    69   64   71 1   
    70   65   66 1   
    71   65   67 1   
    72   72   73 1   
    73   72   76 1   
    74   73   74 1   
    75   73   77 1   
    76   73   78 1   
    77   74   75 2   
    78   74   79 1   
    79   79   80 1   
    80   79   86 1   
    81   80   81 1   
    82   80   83 1   
    83   80   87 1   
    84   81   82 2   
    85   81   93 1   
    86   83   84 1   
    87   83   85 1   
    88   83   88 1   
    89   84   90 1   
    90   84   91 1   
    91   84   92 1   
    92   85   89 1   
    93   93   94 1   
    94   93  101 1   
    95   94   95 1   
    96   94   97 1   
    97   94  102 1   
    98   95   96 2   
    99   95  112 1   
   100   97   98 1   
   101   97   99 1   
   102   97  103 1   
   103   98  100 1   
   104   98  104 1   
   105   98  105 1   
   106   99  106 1   
   107   99  107 1   
   108   99  108 1   
   109  100  109 1   
   110  100  110 1   
   111  100  111 1   
   112  112  113 1   
   113  112  119 1   
   114  113  114 1   
   115  113  116 1   
   116  113  120 1   
   117  114  115 2   
   118  114  126 1   
   119  116  117 1   
   120  116  118 1   
   121  116  121 1   
   122  117  123 1   
   123  117  124 1   
   124  117  125 1   
   125  118  122 1   
   126  126  127 1   
   127  126  133 1   
   128  127  128 1   
   129  127  130 1   
   130  127  134 1   
   131  128  129 2   
   132  128  140 1   
   133  130  131 1   
   134  130  132 1   
   135  130  135 1   
   136  131  137 1   
   137  131  138 1   
   138  131  139 1   
   139  132  136 1   
   140  140  141 1   
   141  140  149 1   
   142  141  142 1   
   143  141  144 1   
   144  141  150 1   
   145  142  143 2   
   146  142  162 1   
   147  144  145 1   
   148  144  151 1   
   149  144  152 1   
   150  145  146 1   
   151  145  153 1   
   152  145  154 1   
   153  146  147 1   
   154  146  155 1   
   155  146  156 1   
   156  147  148 1   
   157  147  157 1   
   158  147  158 1   
   159  148  159 1   
   160  148  160 1   
   161  148  161 1   
   162  162  163 1   
   163  162  171 1   
   164  163  164 1   
   165  163  166 1   
   166  163  172 1   
   167  164  165 2   
   168  164  177 1   
   169  166  167 1   
   170  166  173 1   
   171  166  174 1   
   172  167  168 1   
   173  167  175 1   
   174  167  176 1   
   175  168  169 1   
   176  168  170 1   
   177  177  178 1   
   178  177  182 1   
   179  178  179 1   
   180  178  180 1   
   181  178  181 1   
   182  184  185 1   
   183  184  186 1   
   184  187  188 1   
   185  187  189 1   
@<TRIPOS>SUBSTRUCTURE
     1 MOL         1 TEMP              0 ****  ****    0 ROOT
