@<TRIPOS>MOLECULE
MOL
  186   183     1     0     0
SMALL
resp


@<TRIPOS>ATOM
      1 C1          0.4620   -1.4640    6.4320 c3        1 MOL     -0.216830
      2 C2          0.8630   -1.6960    4.9460 c         1 MOL      0.774615
      3 O1         -0.0110   -2.2380    4.2490 o         1 MOL     -0.610060
      4 H1          0.9180   -0.5420    6.7910 hc        1 MOL      0.039745
      5 H2         -0.6230   -1.3850    6.5080 hc        1 MOL      0.039745
      6 H3          0.8090   -2.3010    7.0370 hc        1 MOL      0.039745
      7 N1          2.1050   -1.4150    4.5560 n         1 MOL     -0.699934
      8 C3          2.5990   -1.5720    3.1810 c3        1 MOL      0.247143
      9 C4          2.9670   -3.0360    2.9210 c         1 MOL      0.619609
     10 O2          3.7100   -3.5560    3.7310 o         1 MOL     -0.582328
     11 C5          3.8300   -0.6140    3.0420 c3        1 MOL     -0.153902
     12 C6          4.5370   -0.4920    1.7020 c         1 MOL      0.707209
     13 O3          5.7110   -0.0690    1.6490 o         1 MOL     -0.647372
     14 O4          3.8880   -0.8330    0.6990 o         1 MOL     -0.647372
     15 H4          2.7870   -1.0650    5.2090 hn        1 MOL      0.339279
     16 H5          1.7610   -1.2280    2.5690 h1        1 MOL      0.029541
     17 H6          4.4800   -0.8570    3.8870 hc        1 MOL      0.005465
     18 H7          3.4410    0.3660    3.3150 hc        1 MOL      0.005465
     19 N2          2.4070   -3.6010    1.8040 n         1 MOL     -0.333903
     20 C7          2.4070   -5.1050    1.5110 c3        1 MOL     -0.315745
     21 C8          3.3150   -5.5480    0.3370 c         1 MOL      0.658490
     22 O5          3.6530   -6.6840    0.1140 o         1 MOL     -0.587613
     23 C9          0.8830   -5.5680    1.3570 c3        1 MOL      0.269213
     24 C10         0.3980   -4.9420   -0.0010 c3        1 MOL     -0.234567
     25 C11         0.0740   -5.1900    2.6530 c3        1 MOL     -0.271430
     26 C12        -1.1090   -5.1490   -0.0900 c3        1 MOL     -0.097982
     27 H8          1.8930   -2.9870    1.1860 hn        1 MOL      0.231028
     28 H9          2.7480   -5.5780    2.4340 h1        1 MOL      0.127287
     29 H10         1.0310   -6.6430    1.2400 hc        1 MOL     -0.023574
     30 H11         0.7670   -5.5820   -0.8040 hc        1 MOL      0.099863
     31 H12         0.5530   -3.8740   -0.1300 hc        1 MOL      0.099863
     32 H13         0.7500   -5.3290    3.5030 hc        1 MOL      0.069245
     33 H14        -0.2430   -4.1480    2.6520 hc        1 MOL      0.069245
     34 H15        -0.7850   -5.8470    2.8180 hc        1 MOL      0.069245
     35 H16        -1.3930   -6.2000   -0.1280 hc        1 MOL      0.029115
     36 H17        -1.6890   -4.6750    0.7020 hc        1 MOL      0.029115
     37 H18        -1.4560   -4.6120   -0.9820 hc        1 MOL      0.029115
     38 N3          3.7860   -4.5460   -0.3910 n         1 MOL     -0.475329
     39 C13         4.6050   -4.6230   -1.5420 c3        1 MOL      0.025247
     40 C14         5.8890   -3.8040   -1.5070 c         1 MOL      0.515743
     41 O6          6.7370   -4.1160   -2.3180 o         1 MOL     -0.565688
     42 C15         3.8260   -4.2950   -2.8440 c3        1 MOL     -0.027831
     43 C16         3.2720   -2.9240   -2.9500 c         1 MOL      0.726905
     44 O7          3.4630   -2.0080   -2.1450 o         1 MOL     -0.738172
     45 O8          2.5520   -2.6450   -3.9420 o         1 MOL     -0.738172
     46 H19         3.4370   -3.6530   -0.0530 hn        1 MOL      0.223844
     47 H20         4.8440   -5.6750   -1.6450 h1        1 MOL      0.077547
     48 H21         2.9600   -4.9260   -3.0300 hc        1 MOL      0.011706
     49 H22         4.5150   -4.5840   -3.6450 hc        1 MOL      0.011706
     50 N4          5.9600   -2.8640   -0.5630 n         1 MOL     -0.216113
     51 C17         7.2370   -2.2910   -0.0230 c3        1 MOL     -0.201378
     52 C18         7.7940   -1.1600   -0.8680 c         1 MOL      0.687880
     53 O9          8.9330   -1.1850   -1.2480 o         1 MOL     -0.635701
     54 H23         5.1040   -2.5590   -0.0970 hn        1 MOL      0.188696
     55 H24         8.0500   -3.0200    0.0450 h1        1 MOL      0.089306
     56 H25         7.1220   -2.0060    1.0290 h1        1 MOL      0.089306
     57 N5          7.0770   -0.0620   -0.9510 n         1 MOL     -0.331687
     58 C19         7.4330    1.2140   -1.7310 c3        1 MOL      0.124017
     59 C20         7.5980    2.4120   -0.8270 c         1 MOL      0.360252
     60 O10         8.2190    3.4020   -1.1870 o         1 MOL     -0.543439
     61 C21         6.4670    1.5230   -2.8970 c3        1 MOL     -0.329938
     62 C22         5.0220    1.4240   -2.3220 c         1 MOL      0.777582
     63 O11         4.7130    1.5020   -1.0660 o         1 MOL     -0.740844
     64 O12         4.1290    1.3000   -3.1880 o         1 MOL     -0.740844
     65 H26         6.2480   -0.1480   -0.3850 hn        1 MOL      0.052846
     66 H27         8.3990    1.1850   -2.2430 h1        1 MOL      0.069119
     67 H28         6.5070    0.7300   -3.6410 hc        1 MOL      0.109725
     68 H29         6.5080    2.5310   -3.3100 hc        1 MOL      0.109725
     69 N6          7.1240    2.3840    0.4380 n         1 MOL     -0.135082
     70 C23         7.1040    3.5190    1.3360 c3        1 MOL     -0.168129
     71 C24         5.8200    4.3330    1.3850 c         1 MOL      0.665480
     72 O13         5.7980    5.3970    1.9070 o         1 MOL     -0.635323
     73 H30         6.6810    1.5520    0.7920 hn        1 MOL      0.200857
     74 H31         7.9330    4.1900    1.0780 h1        1 MOL      0.058696
     75 H32         7.1750    3.0310    2.3100 h1        1 MOL      0.058696
     76 N7          4.7490    3.8380    0.9060 n         1 MOL     -0.232178
     77 C25         3.3720    4.4350    1.0860 c3        1 MOL     -0.147744
     78 C26         2.2330    3.4240    1.1050 c         1 MOL      0.731992
     79 O14         2.4460    2.2360    0.7870 o         1 MOL     -0.697238
     80 C27         3.1050    5.6460    0.1580 c3        1 MOL     -0.015044
     81 C28         3.2440    5.2890   -1.3070 c3        1 MOL     -0.154618
     82 C29         3.0080    6.5910   -2.1380 c         1 MOL      0.694332
     83 N8          3.0340    6.5300   -3.4420 n         1 MOL     -0.825443
     84 O15         2.8520    7.6830   -1.5850 o         1 MOL     -0.582108
     85 H33         4.6800    2.9250    0.4880 hn        1 MOL      0.238343
     86 H34         3.3860    4.8460    2.1010 h1        1 MOL      0.050943
     87 H35         3.7350    6.5080    0.3680 hc        1 MOL      0.041655
     88 H36         2.1140    6.0360    0.3980 hc        1 MOL      0.041655
     89 H37         2.5420    4.4800   -1.5330 hc        1 MOL      0.032674
     90 H38         4.2480    4.9000   -1.4910 hc        1 MOL      0.032674
     91 H39         3.3010    5.6490   -3.8420 hn        1 MOL      0.370166
     92 H40         2.9450    7.3840   -3.9780 hn        1 MOL      0.370166
     93 N9          1.0880    3.9190    1.3930 n         1 MOL     -0.457340
     94 C30        -0.2250    3.1590    1.5550 c3        1 MOL      0.008063
     95 C31        -1.2790    3.7380    0.6150 c         1 MOL      0.466811
     96 O16        -1.6620    4.9240    0.7340 o         1 MOL     -0.558265
     97 C32        -0.6700    3.2380    3.0850 c3        1 MOL      0.267002
     98 C33        -2.1170    2.6480    3.4780 c3        1 MOL     -0.258603
     99 C34         0.4190    2.7270    4.1210 c3        1 MOL     -0.258603
    100 H41         1.0830    4.9040    1.6350 hn        1 MOL      0.277580
    101 H42        -0.0750    2.1260    1.2370 h1        1 MOL      0.091783
    102 H43        -0.7350    4.2890    3.3730 hc        1 MOL     -0.042404
    103 H44        -2.8820    3.2990    3.0490 hc        1 MOL      0.054524
    104 H45        -2.0560    1.6050    3.1500 hc        1 MOL      0.054524
    105 H46        -2.1840    2.6220    4.5610 hc        1 MOL      0.054524
    106 H47         0.0980    2.9210    5.1440 hc        1 MOL      0.054524
    107 H48         0.5560    1.6400    4.1300 hc        1 MOL      0.054524
    108 H49         1.3890    3.1970    4.0000 hc        1 MOL      0.054524
    109 N10        -1.9110    2.7700   -0.1150 n         1 MOL     -0.379917
    110 C35        -3.0930    2.9390   -0.9760 c3        1 MOL      0.192871
    111 C36        -4.3520    2.2870   -0.3980 c         1 MOL      0.384086
    112 O17        -4.1910    1.5310    0.5750 o         1 MOL     -0.380463
    113 C37        -2.7290    2.3660   -2.3290 c3        1 MOL     -0.151707
    114 C38        -3.0900    0.9440   -2.6010 c         1 MOL      0.630211
    115 N11        -2.3900    0.0080   -2.0060 n         1 MOL     -0.684812
    116 O18        -4.1050    0.7000   -3.1980 o         1 MOL     -0.605151
    117 H50        -1.5500    1.8380    0.0290 hn        1 MOL      0.272883
    118 H51        -3.3380    3.9910   -1.1220 h1        1 MOL      0.030432
    119 H52        -1.6450    2.4820   -2.3550 hc        1 MOL      0.039372
    120 H53        -3.0540    2.9900   -3.1550 hc        1 MOL      0.039372
    121 H54        -1.5680    0.2260   -1.4690 hn        1 MOL      0.373086
    122 H55        -2.5150   -0.9380   -2.3380 hn        1 MOL      0.373086
    123 N12        -5.4970    2.5320   -0.9920 n         1 MOL     -0.458277
    124 C39        -6.7670    2.0090   -0.5680 c3        1 MOL      0.229756
    125 C40        -6.8330    0.4550   -0.4080 c         1 MOL      0.681771
    126 O19        -7.3090   -0.0900    0.5880 o         1 MOL     -0.544184
    127 C41        -7.8350    2.4830   -1.4940 c3        1 MOL     -0.151949
    128 C42        -9.2590    2.2260   -0.9820 ca        1 MOL     -0.018398
    129 C43        -9.5260    2.7770    0.3070 ca        1 MOL     -0.165264
    130 C44       -10.1300    1.2420   -1.5250 ca        1 MOL     -0.165264
    131 C45       -10.7070    2.5000    1.0270 ca        1 MOL     -0.279119
    132 C46       -11.2830    0.9300   -0.7750 ca        1 MOL     -0.279119
    133 C47       -11.5910    1.5430    0.4760 ca        1 MOL      0.381554
    134 O20       -12.7000    1.2320    1.1640 oh        1 MOL     -0.512424
    135 H56        -5.5640    3.1580   -1.7800 hn        1 MOL      0.270536
    136 H57        -7.0390    2.4920    0.3580 h1        1 MOL      0.015079
    137 H58        -7.7510    1.9920   -2.4660 hc        1 MOL      0.059358
    138 H59        -7.7520    3.5590   -1.6010 hc        1 MOL      0.059358
    139 H60        -8.8840    3.5430    0.7020 ha        1 MOL      0.156963
    140 H61        -9.8920    0.6860   -2.4180 ha        1 MOL      0.156963
    141 H62       -10.8400    2.9850    1.9780 ha        1 MOL      0.149438
    142 H63       -11.9370    0.1330   -1.1080 ha        1 MOL      0.149438
    143 H64       -13.2220    0.5260    0.7860 ho        1 MOL      0.370038
    144 N13        -6.1030   -0.3330   -1.2590 n         1 MOL     -0.559157
    145 C48        -6.2180   -1.8090   -1.2540 c3        1 MOL      0.003020
    146 C49        -5.3960   -2.4210   -0.1210 c         1 MOL      0.413261
    147 O21        -5.7860   -3.5320    0.2830 o         1 MOL     -0.552635
    148 C50        -5.6840   -2.2320   -2.6300 c3        1 MOL      0.213600
    149 C51        -6.0600   -3.6820   -3.0800 c3        1 MOL     -0.373542
    150 C52        -5.4100   -3.9980   -4.4630 c         1 MOL      0.734683
    151 O22        -4.1840   -3.8680   -4.5100 o         1 MOL     -0.739108
    152 O23        -6.0700   -4.2090   -5.5080 o         1 MOL     -0.739108
    153 H65        -5.5150    0.1090   -1.9420 hn        1 MOL      0.232952
    154 H66        -7.2320   -2.1940   -1.1310 h1        1 MOL      0.096696
    155 H67        -4.6010   -2.1680   -2.6770 hc        1 MOL      0.014416
    156 H68        -6.2080   -1.6150   -3.3710 hc        1 MOL      0.014416
    157 H69        -7.1400   -3.7110   -3.2180 hc        1 MOL      0.040329
    158 H70        -5.7570   -4.5010   -2.4130 hc        1 MOL      0.040329
    159 N14        -4.4400   -1.7480    0.4340 n         1 MOL     -0.046894
    160 C53        -3.6900   -1.8820    1.7080 c3        1 MOL     -0.016889
    161 C54        -4.4120   -1.4080    2.9670 c         1 MOL      0.479236
    162 O24        -4.4520   -2.1780    3.9290 o         1 MOL     -0.571117
    163 C55        -2.3650   -1.0340    1.6670 c3        1 MOL      0.130892
    164 C56        -1.4590   -1.6130    0.6080 c3        1 MOL     -0.201686
    165 C57        -0.2410   -0.7080    0.3910 c         1 MOL      0.813661
    166 O25         0.9030   -1.1660    0.4480 o         1 MOL     -0.789209
    167 O26        -0.4250    0.3820   -0.2370 o         1 MOL     -0.789209
    168 H71        -4.1030   -0.9050    0.0170 hn        1 MOL     -0.072093
    169 H72        -3.4970   -2.9310    1.9430 h1        1 MOL      0.072192
    170 H73        -1.9180   -1.0630    2.6550 hc        1 MOL     -0.009492
    171 H74        -2.6630   -0.0550    1.2870 hc        1 MOL     -0.009492
    172 H75        -1.9830   -1.8510   -0.3180 hc        1 MOL      0.075749
    173 H76        -1.0950   -2.5500    1.0290 hc        1 MOL      0.075749
    174 N15        -5.1330   -0.3080    2.8610 n         1 MOL     -0.067876
    175 C58        -5.9300    0.2760    3.8850 c3        1 MOL     -0.230064
    176 H77        -5.3670    1.0720    4.3720 h1        1 MOL      0.080724
    177 H78        -6.8390    0.6890    3.4480 h1        1 MOL      0.080724
    178 H79        -6.1930   -0.4850    4.6190 h1        1 MOL      0.080724
    179 H80        -5.1970    0.1230    1.9510 hn        1 MOL      0.081246
    180 Ca1         2.4220    0.2720   -1.1050 Ca        1 MOL      1.805023
    181 O27         0.6440   -1.0810   -2.6240 oh        1 MOL     -0.875424
    182 H81        -0.0660   -1.7180   -2.6880 ho        1 MOL      0.417204
    183 H82         1.4000   -1.5470   -2.9860 ho        1 MOL      0.417204
    184 O28         1.4110    1.9570   -2.9170 oh        1 MOL     -0.875424
    185 H83         0.7500    1.9240   -3.6050 ho        1 MOL      0.417204
    186 H84         2.0830    2.5560   -3.2530 ho        1 MOL      0.417204
@<TRIPOS>BOND
     1    1    2 1   
     2    1    4 1   
     3    1    5 1   
     4    1    6 1   
     5    2    3 2   
     6    2    7 1   
     7    7    8 1   
     8    7   15 1   
     9    8    9 1   
    10    8   11 1   
    11    8   16 1   
    12    9   10 2   
    13    9   19 1   
    14   11   12 1   
    15   11   17 1   
    16   11   18 1   
    17   12   13 1   
    18   12   14 1   
    19   19   20 1   
    20   19   27 1   
    21   20   21 1   
    22   20   23 1   
    23   20   28 1   
    24   21   22 2   
    25   21   38 1   
    26   23   24 1   
    27   23   25 1   
    28   23   29 1   
    29   24   26 1   
    30   24   30 1   
    31   24   31 1   
    32   25   32 1   
    33   25   33 1   
    34   25   34 1   
    35   26   35 1   
    36   26   36 1   
    37   26   37 1   
    38   38   39 1   
    39   38   46 1   
    40   39   40 1   
    41   39   42 1   
    42   39   47 1   
    43   40   41 2   
    44   40   50 1   
    45   42   43 1   
    46   42   48 1   
    47   42   49 1   
    48   43   44 1   
    49   43   45 1   
    50   50   51 1   
    51   50   54 1   
    52   51   52 1   
    53   51   55 1   
    54   51   56 1   
    55   52   53 2   
    56   52   57 1   
    57   57   58 1   
    58   57   65 1   
    59   58   59 1   
    60   58   61 1   
    61   58   66 1   
    62   59   60 2   
    63   59   69 1   
    64   61   62 1   
    65   61   67 1   
    66   61   68 1   
    67   62   63 1   
    68   62   64 1   
    69   69   70 1   
    70   69   73 1   
    71   70   71 1   
    72   70   74 1   
    73   70   75 1   
    74   71   72 2   
    75   71   76 1   
    76   76   77 1   
    77   76   85 1   
    78   77   78 1   
    79   77   80 1   
    80   77   86 1   
    81   78   79 2   
    82   78   93 1   
    83   80   81 1   
    84   80   87 1   
    85   80   88 1   
    86   81   82 1   
    87   81   89 1   
    88   81   90 1   
    89   82   83 1   
    90   82   84 2   
    91   83   91 1   
    92   83   92 1   
    93   93   94 1   
    94   93  100 1   
    95   94   95 1   
    96   94   97 1   
    97   94  101 1   
    98   95   96 2   
    99   95  109 1   
   100   97   98 1   
   101   97   99 1   
   102   97  102 1   
   103   98  103 1   
   104   98  104 1   
   105   98  105 1   
   106   99  106 1   
   107   99  107 1   
   108   99  108 1   
   109  109  110 1   
   110  109  117 1   
   111  110  111 1   
   112  110  113 1   
   113  110  118 1   
   114  111  112 2   
   115  111  123 1   
   116  113  114 1   
   117  113  119 1   
   118  113  120 1   
   119  114  115 1   
   120  114  116 2   
   121  115  121 1   
   122  115  122 1   
   123  123  124 1   
   124  123  135 1   
   125  124  125 1   
   126  124  127 1   
   127  124  136 1   
   128  125  126 2   
   129  125  144 1   
   130  127  128 1   
   131  127  137 1   
   132  127  138 1   
   133  128  129 ar  
   134  128  130 ar  
   135  129  131 ar  
   136  129  139 1   
   137  130  132 ar  
   138  130  140 1   
   139  131  133 ar  
   140  131  141 1   
   141  132  133 ar  
   142  132  142 1   
   143  133  134 1   
   144  134  143 1   
   145  144  145 1   
   146  144  153 1   
   147  145  146 1   
   148  145  148 1   
   149  145  154 1   
   150  146  147 2   
   151  146  159 1   
   152  148  149 1   
   153  148  155 1   
   154  148  156 1   
   155  149  150 1   
   156  149  157 1   
   157  149  158 1   
   158  150  151 1   
   159  150  152 1   
   160  159  160 1   
   161  159  168 1   
   162  160  161 1   
   163  160  163 1   
   164  160  169 1   
   165  161  162 2   
   166  161  174 1   
   167  163  164 1   
   168  163  170 1   
   169  163  171 1   
   170  164  165 1   
   171  164  172 1   
   172  164  173 1   
   173  165  166 1   
   174  165  167 1   
   175  174  175 1   
   176  174  179 1   
   177  175  176 1   
   178  175  177 1   
   179  175  178 1   
   180  181  182 1   
   181  181  183 1   
   182  184  185 1   
   183  184  186 1   
@<TRIPOS>SUBSTRUCTURE
     1 MOL         1 TEMP              0 ****  ****    0 ROOT
