@<TRIPOS>MOLECULE
MOL
  172   171     1     0     0
SMALL
resp


@<TRIPOS>ATOM
      1 C1          1.1250   -2.7350    6.1980 c3        1 MOL     -0.289412
      2 C2          0.8870   -2.4900    4.6900 c         1 MOL      0.725364
      3 O1         -0.1310   -2.9240    4.1540 o         1 MOL     -0.558935
      4 H1          0.1710   -2.9340    6.6880 hc        1 MOL      0.071655
      5 H2          1.7850   -3.5930    6.3280 hc        1 MOL      0.071655
      6 H3          1.5850   -1.8520    6.6430 hc        1 MOL      0.071655
      7 N1          1.9250   -1.9810    3.9500 n         1 MOL     -0.668419
      8 C3          2.0400   -1.9350    2.5280 c3        1 MOL      0.078086
      9 C4          2.3090   -3.3050    1.9280 c         1 MOL      0.563155
     10 O2          3.4080   -3.9160    1.9790 o         1 MOL     -0.584377
     11 C5          3.0980   -0.9640    2.1770 c3        1 MOL      0.048354
     12 C6          3.0350   -0.5680    0.7670 c         1 MOL      0.339827
     13 O3          2.9540   -1.4060   -0.1240 o         1 MOL     -0.557044
     14 O4          3.2540    0.6420    0.4420 o         1 MOL     -0.557044
     15 H4          2.6580   -1.5580    4.5130 hn        1 MOL      0.319011
     16 H5          1.0900   -1.6770    2.0610 h1        1 MOL      0.071741
     17 H6          4.0850   -1.3660    2.4340 hc        1 MOL      0.033626
     18 H7          2.9770   -0.0550    2.7670 hc        1 MOL      0.033626
     19 N2          1.3850   -3.7120    1.0950 n         1 MOL     -0.277935
     20 C7          1.5080   -4.9340    0.2680 c3        1 MOL      0.104274
     21 C8          2.5810   -5.0080   -0.8790 c         1 MOL      0.459557
     22 O5          2.8320   -6.0760   -1.4260 o         1 MOL     -0.571865
     23 C9          0.0800   -5.4530   -0.1780 c3        1 MOL     -0.297489
     24 H8          0.6700   -3.0110    0.9300 hn        1 MOL      0.227578
     25 H9          1.8280   -5.6910    0.9900 h1        1 MOL      0.055143
     26 H10        -0.4000   -4.6950   -0.7930 hc        1 MOL      0.092256
     27 H11         0.0760   -6.3290   -0.8270 hc        1 MOL      0.092256
     28 H12        -0.5590   -5.5160    0.6900 hc        1 MOL      0.092256
     29 N3          3.2450   -3.9010   -1.1640 n         1 MOL     -0.166195
     30 C10         4.4360   -3.7630   -2.0940 c3        1 MOL      0.029088
     31 C11         5.6910   -3.2460   -1.3450 c         1 MOL      0.313236
     32 O6          6.7450   -3.0610   -1.9730 o         1 MOL     -0.526623
     33 C12         4.1450   -2.9300   -3.3510 c3        1 MOL     -0.213866
     34 C13         3.3190   -1.7210   -3.0500 c         1 MOL      0.784467
     35 O7          3.8510   -0.7340   -2.5710 o         1 MOL     -0.755003
     36 O8          2.0720   -1.6640   -3.3380 o         1 MOL     -0.755003
     37 H13         3.0120   -3.0510   -0.6670 hn        1 MOL      0.106791
     38 H14         4.7370   -4.7810   -2.3370 h1        1 MOL      0.088162
     39 H15         3.5750   -3.5370   -4.0550 hc        1 MOL      0.061565
     40 H16         5.0010   -2.6070   -3.9560 hc        1 MOL      0.061565
     41 N4          5.4980   -2.9000   -0.1080 n         1 MOL      0.050358
     42 C14         6.6560   -2.6740    0.7440 c3        1 MOL     -0.261954
     43 C15         7.2480   -1.2570    0.6630 c         1 MOL      0.503345
     44 O9          8.0620   -0.9080    1.4970 o         1 MOL     -0.567256
     45 H17         4.6100   -3.0070    0.3610 hn        1 MOL      0.024107
     46 H18         7.4370   -3.3810    0.4690 h1        1 MOL      0.120436
     47 H19         6.4030   -2.7700    1.8010 h1        1 MOL      0.120436
     48 N5          6.7410   -0.4170   -0.2600 n         1 MOL     -0.241711
     49 C16         7.2560    0.9340   -0.4540 c3        1 MOL     -0.045021
     50 C17         6.8540    1.9040    0.6450 c         1 MOL      0.432929
     51 O10         7.3570    3.0670    0.6890 o         1 MOL     -0.528642
     52 C18         6.6900    1.4840   -1.7830 c3        1 MOL     -0.250009
     53 C19         7.0640    0.5930   -2.9880 c         1 MOL      0.593859
     54 N6          6.2110   -0.0340   -3.7370 n         1 MOL     -0.755986
     55 O11         8.2550    0.3800   -3.2330 o         1 MOL     -0.589828
     56 H20         6.0340   -0.8350   -0.8420 hn        1 MOL      0.340327
     57 H21         8.3410    0.9470   -0.5940 h1        1 MOL      0.117879
     58 H22         7.0590    2.4850   -2.0060 hc        1 MOL      0.089136
     59 H23         5.6020    1.4600   -1.7770 hc        1 MOL      0.089136
     60 H24         5.2290   -0.0420   -3.5200 hn        1 MOL      0.363549
     61 H25         6.5580   -0.4840   -4.5680 hn        1 MOL      0.363549
     62 N7          5.8200    1.4930    1.4040 n         1 MOL     -0.034665
     63 C20         5.3750    2.2570    2.5400 c3        1 MOL     -0.432081
     64 C21         4.6910    3.5950    2.0720 c         1 MOL      0.655414
     65 O12         4.9150    4.6990    2.5980 o         1 MOL     -0.624410
     66 H26         5.1890    0.7740    1.0820 hn        1 MOL      0.081051
     67 H27         6.2580    2.3880    3.1600 h1        1 MOL      0.155360
     68 H28         4.5990    1.7610    3.1200 h1        1 MOL      0.155360
     69 N8          3.8270    3.5010    1.1830 n         1 MOL     -0.251937
     70 C22         2.8410    4.5120    0.7980 c3        1 MOL     -0.353811
     71 C23         1.5390    3.7740    0.4520 c         1 MOL      0.773399
     72 O13         1.4420    2.9700   -0.5160 o         1 MOL     -0.688168
     73 C24         3.3360    5.2850   -0.4370 c3        1 MOL      0.532557
     74 C25         2.3340    6.3390   -0.9020 c3        1 MOL     -0.391571
     75 O14         4.5680    5.9810   -0.1040 oh        1 MOL     -0.688237
     76 H29         3.7000    2.5920    0.7570 hn        1 MOL      0.148162
     77 H30         2.6400    5.0790    1.7110 h1        1 MOL      0.153258
     78 H31         3.5990    4.6410   -1.2750 h1        1 MOL     -0.014840
     79 H32         5.1920    5.5250    0.4660 ho        1 MOL      0.429461
     80 H33         2.1740    7.1190   -0.1650 hc        1 MOL      0.098672
     81 H34         2.7440    6.6820   -1.8460 hc        1 MOL      0.098672
     82 H35         1.3320    5.9240   -1.0530 hc        1 MOL      0.098672
     83 N9          0.4480    4.0510    1.1540 n         1 MOL     -0.412238
     84 C26        -0.6490    3.1040    1.3410 c3        1 MOL      0.029282
     85 C27        -1.7450    3.3250    0.3910 c         1 MOL      0.448677
     86 O15        -2.2490    4.4500    0.2300 o         1 MOL     -0.575805
     87 C28        -1.1870    3.0680    2.7700 c3        1 MOL      0.089008
     88 C29        -0.0690    2.8370    3.7700 c3        1 MOL      0.051413
     89 C30        -2.2720    2.0090    2.9260 c3        1 MOL     -0.271610
     90 C31         0.6940    1.5270    3.5940 c3        1 MOL     -0.174453
     91 H36         0.6430    4.7560    1.8530 hn        1 MOL      0.243352
     92 H37        -0.2570    2.1180    1.0760 h1        1 MOL      0.057991
     93 H38        -1.6010    4.0440    3.0320 hc        1 MOL      0.007080
     94 H39        -0.5390    2.9660    4.7390 hc        1 MOL     -0.009882
     95 H40         0.6340    3.6590    3.6760 hc        1 MOL     -0.009882
     96 H41        -1.9170    1.0760    2.4890 hc        1 MOL      0.071938
     97 H42        -2.4800    1.8400    3.9870 hc        1 MOL      0.071938
     98 H43        -3.2520    2.1850    2.4960 hc        1 MOL      0.071938
     99 H44         1.0700    1.4300    2.5680 hc        1 MOL      0.031043
    100 H45         1.6040    1.7000    4.1760 hc        1 MOL      0.031043
    101 H46         0.0760    0.6740    3.8720 hc        1 MOL      0.031043
    102 N10        -2.1250    2.2830   -0.3720 n         1 MOL      0.031629
    103 C32        -3.2100    2.2980   -1.3200 c3        1 MOL     -0.005523
    104 C33        -4.5410    1.8930   -0.6730 c         1 MOL      0.320878
    105 O16        -4.5990    1.3570    0.4310 o         1 MOL     -0.329372
    106 C34        -2.8590    1.4530   -2.5510 c3        1 MOL     -0.055074
    107 C35        -1.5130    1.7430   -3.2500 c         1 MOL      0.646788
    108 O17        -0.4190    1.4210   -2.7220 o         1 MOL     -0.680294
    109 O18        -1.5820    2.2990   -4.3770 o         1 MOL     -0.680294
    110 H47        -1.7350    1.3670   -0.2170 hn        1 MOL     -0.105801
    111 H48        -3.3560    3.3330   -1.6220 h1        1 MOL      0.062213
    112 H49        -3.6320    1.5310   -3.3120 hc        1 MOL      0.001802
    113 H50        -2.8100    0.4380   -2.1420 hc        1 MOL      0.001802
    114 N11        -5.6200    1.9580   -1.4120 n         1 MOL     -0.420950
    115 C36        -6.8830    1.4900   -0.8430 c3        1 MOL      0.086671
    116 C37        -6.9700   -0.0360   -0.4820 c         1 MOL      0.516193
    117 O19        -7.4820   -0.2710    0.5920 o         1 MOL     -0.493424
    118 C38        -8.0510    1.8260   -1.8420 c3        1 MOL     -0.168611
    119 C39        -9.3950    1.2880   -1.3620 ca        1 MOL      0.097695
    120 C40        -9.9650    1.8610   -0.1480 ca        1 MOL     -0.169925
    121 C41       -10.2070    0.3690   -1.9930 ca        1 MOL     -0.169925
    122 C42       -11.2070    1.4390    0.4040 ca        1 MOL     -0.127779
    123 C43       -11.3020   -0.2630   -1.3900 ca        1 MOL     -0.127779
    124 C44       -11.8470    0.3220   -0.2060 ca        1 MOL     -0.086456
    125 H51        -5.5900    2.2620   -2.3700 hn        1 MOL      0.294271
    126 H52        -6.9640    2.0470    0.0930 h1        1 MOL      0.101873
    127 H53        -7.8490    1.6350   -2.9040 hc        1 MOL      0.069078
    128 H54        -8.1170    2.9080   -1.8900 hc        1 MOL      0.069078
    129 H55        -9.4440    2.6520    0.3680 ha        1 MOL      0.107450
    130 H56        -9.8720   -0.0160   -2.9410 ha        1 MOL      0.107450
    131 H57       -11.5970    1.7580    1.3620 ha        1 MOL      0.121469
    132 H58       -11.7580   -1.1190   -1.8660 ha        1 MOL      0.121469
    133 H59       -12.7780   -0.0820    0.1720 ha        1 MOL      0.087454
    134 N12        -6.5950   -0.9840   -1.4090 n         1 MOL     -0.222729
    135 C45        -6.7260   -2.4340   -1.1280 c3        1 MOL     -0.141901
    136 C46        -5.8470   -2.7600    0.1180 c         1 MOL      0.381425
    137 O20        -6.0150   -3.7790    0.7780 o         1 MOL     -0.532412
    138 C47        -6.2380   -3.0960   -2.4270 c3        1 MOL     -0.000923
    139 C48        -5.1780   -2.1110   -3.0260 c3        1 MOL      0.036479
    140 C49        -5.7440   -0.7450   -2.5770 c3        1 MOL     -0.060875
    141 H60        -7.7400   -2.6760   -0.8160 h1        1 MOL      0.117400
    142 H61        -5.8440   -4.0930   -2.2220 hc        1 MOL      0.023807
    143 H62        -6.9530   -3.2850   -3.2180 hc        1 MOL      0.023807
    144 H63        -4.2550   -2.4400   -2.5560 hc        1 MOL      0.026672
    145 H64        -5.0800   -2.2800   -4.0970 hc        1 MOL      0.026672
    146 H65        -4.7930   -0.2440   -2.3780 h1        1 MOL      0.046194
    147 H66        -6.3920   -0.3730   -3.3760 h1        1 MOL      0.046194
    148 N13        -4.8620   -1.9410    0.4480 n         1 MOL     -0.075021
    149 C50        -3.9180   -2.0980    1.5940 c3        1 MOL     -0.089678
    150 C51        -4.4970   -1.4690    2.9150 c         1 MOL      0.462864
    151 O21        -4.4410   -2.1480    3.9570 o         1 MOL     -0.540339
    152 C52        -2.5000   -1.5640    1.2870 c3        1 MOL     -0.061687
    153 C53        -1.7510   -2.2630    0.1370 c3        1 MOL      0.067919
    154 C54        -0.7860   -1.3220   -0.5320 c         1 MOL      0.574233
    155 O22        -0.0890   -0.5300    0.1050 o         1 MOL     -0.640878
    156 O23        -0.7510   -1.4690   -1.7820 o         1 MOL     -0.640878
    157 H67        -4.6980   -1.1690   -0.1660 hn        1 MOL      0.322334
    158 H68        -3.8840   -3.1730    1.7980 h1        1 MOL      0.084936
    159 H69        -1.8570   -1.5670    2.1620 hc        1 MOL      0.065502
    160 H70        -2.5990   -0.5260    0.9610 hc        1 MOL      0.065502
    161 H71        -2.5020   -2.5780   -0.5840 hc        1 MOL     -0.049207
    162 H72        -1.2520   -3.1150    0.5770 hc        1 MOL     -0.049207
    163 N14        -4.9370   -0.2230    2.8370 n         1 MOL     -0.148551
    164 C55        -5.9700    0.3440    3.7330 c3        1 MOL     -0.248224
    165 H73        -6.8060   -0.3520    3.8110 h1        1 MOL      0.099097
    166 H74        -5.5430    0.5110    4.7210 h1        1 MOL      0.099097
    167 H75        -6.3250    1.2910    3.3250 h1        1 MOL      0.099097
    168 H76        -4.8920    0.2620    1.9490 hn        1 MOL      0.041171
    169 Ca1         1.6900    0.4560   -1.6890 Ca        1 MOL      1.737136
    170 O24         2.6710    2.0170   -3.5860 oh        1 MOL     -0.903538
    171 H77         2.0720    2.5050   -4.1490 ho        1 MOL      0.433443
    172 H78         3.4930    2.5030   -3.6460 ho        1 MOL      0.433443
@<TRIPOS>BOND
     1    1    2 1   
     2    1    4 1   
     3    1    5 1   
     4    1    6 1   
     5    2    3 2   
     6    2    7 1   
     7    7    8 1   
     8    7   15 1   
     9    8    9 1   
    10    8   11 1   
    11    8   16 1   
    12    9   10 2   
    13    9   19 1   
    14   11   12 1   
    15   11   17 1   
    16   11   18 1   
    17   12   13 1   
    18   12   14 1   
    19   19   20 1   
    20   19   24 1   
    21   20   21 1   
    22   20   23 1   
    23   20   25 1   
    24   21   22 2   
    25   21   29 1   
    26   23   26 1   
    27   23   27 1   
    28   23   28 1   
    29   29   30 1   
    30   29   37 1   
    31   30   31 1   
    32   30   33 1   
    33   30   38 1   
    34   31   32 2   
    35   31   41 1   
    36   33   34 1   
    37   33   39 1   
    38   33   40 1   
    39   34   35 1   
    40   34   36 1   
    41   41   42 1   
    42   41   45 1   
    43   42   43 1   
    44   42   46 1   
    45   42   47 1   
    46   43   44 2   
    47   43   48 1   
    48   48   49 1   
    49   48   56 1   
    50   49   50 1   
    51   49   52 1   
    52   49   57 1   
    53   50   51 2   
    54   50   62 1   
    55   52   53 1   
    56   52   58 1   
    57   52   59 1   
    58   53   54 1   
    59   53   55 2   
    60   54   60 1   
    61   54   61 1   
    62   62   63 1   
    63   62   66 1   
    64   63   64 1   
    65   63   67 1   
    66   63   68 1   
    67   64   65 2   
    68   64   69 1   
    69   69   70 1   
    70   69   76 1   
    71   70   71 1   
    72   70   73 1   
    73   70   77 1   
    74   71   72 2   
    75   71   83 1   
    76   73   74 1   
    77   73   75 1   
    78   73   78 1   
    79   74   80 1   
    80   74   81 1   
    81   74   82 1   
    82   75   79 1   
    83   83   84 1   
    84   83   91 1   
    85   84   85 1   
    86   84   87 1   
    87   84   92 1   
    88   85   86 2   
    89   85  102 1   
    90   87   88 1   
    91   87   89 1   
    92   87   93 1   
    93   88   90 1   
    94   88   94 1   
    95   88   95 1   
    96   89   96 1   
    97   89   97 1   
    98   89   98 1   
    99   90   99 1   
   100   90  100 1   
   101   90  101 1   
   102  102  103 1   
   103  102  110 1   
   104  103  104 1   
   105  103  106 1   
   106  103  111 1   
   107  104  105 2   
   108  104  114 1   
   109  106  107 1   
   110  106  112 1   
   111  106  113 1   
   112  107  108 1   
   113  107  109 1   
   114  114  115 1   
   115  114  125 1   
   116  115  116 1   
   117  115  118 1   
   118  115  126 1   
   119  116  117 2   
   120  116  134 1   
   121  118  119 1   
   122  118  127 1   
   123  118  128 1   
   124  119  120 ar  
   125  119  121 ar  
   126  120  122 ar  
   127  120  129 1   
   128  121  123 ar  
   129  121  130 1   
   130  122  124 ar  
   131  122  131 1   
   132  123  124 ar  
   133  123  132 1   
   134  124  133 1   
   135  134  135 1   
   136  134  140 1   
   137  135  136 1   
   138  135  138 1   
   139  135  141 1   
   140  136  137 2   
   141  136  148 1   
   142  138  139 1   
   143  138  142 1   
   144  138  143 1   
   145  139  140 1   
   146  139  144 1   
   147  139  145 1   
   148  140  146 1   
   149  140  147 1   
   150  148  149 1   
   151  148  157 1   
   152  149  150 1   
   153  149  152 1   
   154  149  158 1   
   155  150  151 2   
   156  150  163 1   
   157  152  153 1   
   158  152  159 1   
   159  152  160 1   
   160  153  154 1   
   161  153  161 1   
   162  153  162 1   
   163  154  155 1   
   164  154  156 1   
   165  163  164 1   
   166  163  168 1   
   167  164  165 1   
   168  164  166 1   
   169  164  167 1   
   170  170  171 1   
   171  170  172 1   
@<TRIPOS>SUBSTRUCTURE
     1 MOL         1 TEMP              0 ****  ****    0 ROOT
