@<TRIPOS>MOLECULE
MOL
  189   185     1     0     0
SMALL
resp


@<TRIPOS>ATOM
      1 C1         -0.2320    2.9510    6.0760 c3        1 MOL     -0.300693
      2 C2         -0.4830    2.5890    4.5960 c         1 MOL      0.737953
      3 O1          0.4720    2.6680    3.7990 o         1 MOL     -0.624438
      4 H1          0.3840    3.8490    6.1310 hc        1 MOL      0.076343
      5 H2         -1.1850    3.1320    6.5730 hc        1 MOL      0.076343
      6 H3          0.2840    2.1270    6.5690 hc        1 MOL      0.076343
      7 N1         -1.6800    2.1440    4.2030 n         1 MOL     -0.625037
      8 C3         -2.1060    1.9530    2.7950 c3        1 MOL     -0.006258
      9 C4         -2.4930    3.2620    2.0800 c         1 MOL      0.547337
     10 O2         -3.2240    4.1650    2.5750 o         1 MOL     -0.584954
     11 C5         -3.3380    1.0190    2.8550 c3        1 MOL     -0.128372
     12 C6         -3.8120    0.4760    1.5120 c         1 MOL      0.736033
     13 O3         -3.2890    0.7670    0.4060 o         1 MOL     -0.686583
     14 O4         -4.6550   -0.4360    1.5520 o         1 MOL     -0.686583
     15 H4         -2.4260    1.9640    4.8640 hn        1 MOL      0.355703
     16 H5         -1.3990    1.3470    2.2170 h1        1 MOL      0.035563
     17 H6         -4.1690    1.4630    3.4150 hc        1 MOL      0.025010
     18 H7         -3.0610    0.1470    3.4630 hc        1 MOL      0.025010
     19 N2         -1.8710    3.4300    0.9280 n         1 MOL     -0.097325
     20 C7         -1.6780    4.7550    0.2710 c3        1 MOL     -0.228834
     21 C8         -2.7310    5.1250   -0.7930 c         1 MOL      0.613130
     22 O5         -2.9320    6.2670   -1.1590 o         1 MOL     -0.579214
     23 C9         -0.3100    4.8760   -0.3380 c3        1 MOL     -0.076167
     24 C10         0.7650    5.2000    0.7200 c3        1 MOL      0.067519
     25 C11         0.4920    6.5030    1.4620 c3        1 MOL     -0.015149
     26 C12         1.7690    6.9050    2.1160 c3        1 MOL      0.159232
     27 N3          1.5390    8.2160    2.7320 n4        1 MOL     -0.390456
     28 H8         -1.3200    2.6580    0.5970 hn        1 MOL      0.220861
     29 H9         -1.7720    5.5210    1.0420 h1        1 MOL      0.060126
     30 H10        -0.2630    5.6350   -1.1080 hc        1 MOL      0.040474
     31 H11        -0.0320    3.9750   -0.9040 hc        1 MOL      0.040474
     32 H12         1.7280    5.4040    0.2330 hc        1 MOL     -0.003921
     33 H13         0.9110    4.3990    1.4540 hc        1 MOL     -0.003921
     34 H14        -0.2570    6.3680    2.2350 hc        1 MOL      0.032757
     35 H15         0.2470    7.2630    0.7120 hc        1 MOL      0.032757
     36 H16         2.6140    6.9440    1.4210 hx        1 MOL      0.050735
     37 H17         2.0550    6.2020    2.8960 hx        1 MOL      0.050735
     38 H18         1.5640    8.9630    2.0530 hn        1 MOL      0.321510
     39 H19         0.6550    8.3010    3.1970 hn        1 MOL      0.321510
     40 H20         2.2720    8.3930    3.4010 hn        1 MOL      0.321510
     41 N4         -3.3660    4.0420   -1.2450 n         1 MOL     -0.374231
     42 C13        -4.4160    3.9910   -2.3090 c3        1 MOL     -0.047174
     43 C14        -5.7480    3.3040   -1.9140 c         1 MOL      0.454971
     44 O6         -6.6180    3.3060   -2.7400 o         1 MOL     -0.486972
     45 C15        -3.7980    3.3760   -3.5840 c3        1 MOL      0.014544
     46 C16        -3.1160    2.0550   -3.3810 c         1 MOL      0.628806
     47 O7         -2.4320    1.6140   -4.3560 o         1 MOL     -0.686577
     48 O8         -3.2450    1.3570   -2.3240 o         1 MOL     -0.686577
     49 H21        -2.9030    3.1580   -1.0600 hn        1 MOL      0.251260
     50 H22        -4.6450    5.0270   -2.5940 h1        1 MOL      0.089342
     51 H23        -3.0080    4.0300   -3.9550 hc        1 MOL      0.013272
     52 H24        -4.5640    3.3850   -4.3610 hc        1 MOL      0.013272
     53 N5         -5.7990    2.7240   -0.7170 n         1 MOL     -0.253522
     54 C17        -7.0280    2.1860   -0.2130 c3        1 MOL     -0.033538
     55 C18        -7.5770    0.9250   -0.9400 c         1 MOL      0.422795
     56 O9         -8.7660    0.8320   -1.2820 o         1 MOL     -0.546496
     57 H25        -4.9580    2.6590   -0.1630 hn        1 MOL      0.153625
     58 H26        -7.8340    2.9210   -0.1670 h1        1 MOL      0.054739
     59 H27        -6.8420    1.7800    0.7750 h1        1 MOL      0.054739
     60 N6         -6.6430   -0.0190   -1.2340 n         1 MOL     -0.212205
     61 C19        -6.9700   -1.2920   -1.9380 c3        1 MOL     -0.031012
     62 C20        -7.0420   -2.4700   -0.9560 c         1 MOL      0.418079
     63 O10        -7.3330   -3.5880   -1.3490 o         1 MOL     -0.493365
     64 C21        -6.0070   -1.5240   -3.0920 c3        1 MOL     -0.227519
     65 C22        -4.5120   -1.6510   -2.6380 c         1 MOL      0.671922
     66 O11        -3.6190   -1.7710   -3.5040 o         1 MOL     -0.680278
     67 O12        -4.1730   -1.7760   -1.4280 o         1 MOL     -0.680278
     68 H28        -5.6800    0.1740   -0.9860 hn        1 MOL      0.231149
     69 H29        -7.9340   -1.2350   -2.4450 h1        1 MOL      0.126039
     70 H30        -6.2190   -0.6980   -3.7790 hc        1 MOL      0.092441
     71 H31        -6.3830   -2.3920   -3.6160 hc        1 MOL      0.092441
     72 N7         -6.8490   -2.2210    0.3780 n         1 MOL     -0.324663
     73 C23        -6.8590   -3.3140    1.3820 c3        1 MOL     -0.192469
     74 C24        -5.6010   -4.1810    1.5560 c         1 MOL      0.609336
     75 O13        -5.7430   -5.3370    1.9890 o         1 MOL     -0.572208
     76 H32        -6.4430   -1.3410    0.6630 hn        1 MOL      0.248406
     77 H33        -7.7460   -3.9310    1.2500 h1        1 MOL      0.102252
     78 H34        -6.8160   -2.8310    2.3640 h1        1 MOL      0.102252
     79 N8         -4.4340   -3.5960    1.2040 n         1 MOL     -0.423443
     80 C25        -3.1550   -4.2710    0.9830 c3        1 MOL     -0.018562
     81 C26        -1.9590   -3.3190    1.0850 c         1 MOL      0.544330
     82 O14        -1.9800   -2.1580    0.7150 o         1 MOL     -0.562746
     83 C27        -2.9860   -5.0640   -0.3090 c3        1 MOL      0.665575
     84 C28        -2.9740   -6.5320   -0.1590 c3        1 MOL     -0.405646
     85 O15        -3.9370   -4.6450   -1.2260 oh        1 MOL     -0.700286
     86 H35        -4.4420   -2.5900    1.0960 hn        1 MOL      0.274838
     87 H36        -3.0380   -4.9770    1.8050 h1        1 MOL      0.008000
     88 H37        -1.9950   -4.7490   -0.6490 h1        1 MOL     -0.144801
     89 H38        -4.1160   -3.7270   -1.0000 ho        1 MOL      0.503562
     90 H39        -2.2720   -6.8550    0.6120 hc        1 MOL      0.088961
     91 H40        -4.0000   -6.8520    0.0330 hc        1 MOL      0.088961
     92 H41        -2.6530   -7.0410   -1.0750 hc        1 MOL      0.088961
     93 N9         -0.8250   -3.8680    1.6000 n         1 MOL     -0.446826
     94 C29         0.4090   -3.1460    1.7730 c3        1 MOL      0.087941
     95 C30         1.5010   -3.7460    0.8160 c         1 MOL      0.451426
     96 O16         1.5890   -4.9600    0.6290 o         1 MOL     -0.561338
     97 C31         0.8180   -3.1590    3.2260 c3        1 MOL     -0.081093
     98 C32        -0.1940   -2.4490    4.1250 c3        1 MOL     -0.089455
     99 C33         2.2690   -2.6330    3.5500 c3        1 MOL     -0.217509
    100 C34        -0.6690   -1.0070    3.8240 c3        1 MOL      0.020962
    101 H42        -0.7980   -4.8750    1.6130 hn        1 MOL      0.282668
    102 H43         0.3900   -2.1230    1.3860 h1        1 MOL      0.100269
    103 H44         0.8180   -4.2020    3.5360 hc        1 MOL      0.059024
    104 H45         0.0220   -2.5000    5.1860 hc        1 MOL      0.027422
    105 H46        -1.1250   -3.0150    4.0630 hc        1 MOL      0.027422
    106 H47         2.3700   -1.6050    3.2130 hc        1 MOL      0.051792
    107 H48         2.5000   -2.5530    4.6180 hc        1 MOL      0.051792
    108 H49         3.0740   -3.2430    3.1270 hc        1 MOL      0.051792
    109 H50        -1.2320   -0.6280    4.6770 hc        1 MOL      0.025666
    110 H51         0.1940   -0.3560    3.7080 hc        1 MOL      0.025666
    111 H52        -1.2390   -1.0000    2.8880 hc        1 MOL      0.025666
    112 N10         2.3570   -2.9260    0.1920 n         1 MOL     -0.019121
    113 C35         3.4650   -3.3220   -0.6690 c3        1 MOL     -0.031782
    114 C36         4.7610   -3.0750    0.0700 c         1 MOL      0.317886
    115 O17         4.8490   -2.4130    1.0740 o         1 MOL     -0.308071
    116 C37         3.4340   -2.4860   -2.0500 c3        1 MOL      0.214479
    117 C38         2.2080   -2.7190   -2.9300 c3        1 MOL     -0.474427
    118 O18         3.3660   -1.1710   -1.6400 oh        1 MOL     -0.525535
    119 H53         2.0390   -1.9620    0.1980 hn        1 MOL      0.096845
    120 H54         3.4090   -4.4000   -0.8540 h1        1 MOL      0.075738
    121 H55         4.3380   -2.6240   -2.6380 h1        1 MOL      0.046610
    122 H56         2.4560   -0.9390   -1.4510 ho        1 MOL      0.367994
    123 H57         2.2370   -1.9760   -3.7330 hc        1 MOL      0.139717
    124 H58         2.2770   -3.7300   -3.3270 hc        1 MOL      0.139717
    125 H59         1.3220   -2.5220   -2.3210 hc        1 MOL      0.139717
    126 N11         5.8970   -3.5120   -0.4970 n         1 MOL     -0.322577
    127 C39         7.2610   -3.0140   -0.1620 c3        1 MOL     -0.127730
    128 C40         7.3700   -1.5060   -0.2870 c         1 MOL      0.443762
    129 O19         8.2600   -0.8780    0.3300 o         1 MOL     -0.547582
    130 C41         8.3600   -3.6660   -1.0140 c3        1 MOL      0.350957
    131 C42         8.6030   -5.1360   -0.7470 c3        1 MOL     -0.384065
    132 O20         8.0880   -3.6060   -2.3990 oh        1 MOL     -0.662452
    133 H60         5.8010   -4.1220   -1.2960 hn        1 MOL      0.251895
    134 H61         7.5550   -3.2990    0.8410 h1        1 MOL      0.142380
    135 H62         9.2680   -3.1200   -0.7780 h1        1 MOL      0.033057
    136 H63         8.4300   -4.4430   -2.7000 ho        1 MOL      0.423473
    137 H64         9.2910   -5.5170   -1.5040 hc        1 MOL      0.104953
    138 H65         8.8910   -5.2660    0.2980 hc        1 MOL      0.104953
    139 H66         7.6570   -5.6340   -0.9630 hc        1 MOL      0.104953
    140 N12         6.5130   -0.8400   -1.0580 n         1 MOL     -0.113894
    141 C43         6.5520    0.6110   -1.3550 c3        1 MOL     -0.194871
    142 C44         5.7310    1.3570   -0.2790 c         1 MOL      0.610859
    143 O21         5.7990    2.5700   -0.2740 o         1 MOL     -0.595628
    144 C45         6.1720    0.8400   -2.8560 c3        1 MOL      0.099102
    145 C46         6.5060    2.2780   -3.3540 c3        1 MOL     -0.163539
    146 C47         7.9540    2.7100   -3.4600 c3        1 MOL      0.006434
    147 C48         7.9730    4.1820   -3.8750 c3        1 MOL      0.115882
    148 N13         9.4180    4.5730   -4.2120 n4        1 MOL     -0.401837
    149 H67         5.9780   -1.4700   -1.6320 hn        1 MOL      0.191992
    150 H68         7.5930    0.9300   -1.2510 h1        1 MOL      0.118151
    151 H69         5.1150    0.6290   -2.9860 hc        1 MOL      0.018712
    152 H70         6.6560    0.0530   -3.4370 hc        1 MOL      0.018712
    153 H71         5.9420    2.9360   -2.7020 hc        1 MOL      0.054226
    154 H72         6.1520    2.2320   -4.3870 hc        1 MOL      0.054226
    155 H73         8.5280    2.1210   -4.1830 hc        1 MOL      0.034393
    156 H74         8.4910    2.6040   -2.5180 hc        1 MOL      0.034393
    157 H75         7.5110    4.8390   -3.1360 hx        1 MOL      0.068020
    158 H76         7.3620    4.3580   -4.7590 hx        1 MOL      0.068020
    159 H77         9.8970    4.8360   -3.3690 hn        1 MOL      0.314381
    160 H78         9.8920    3.9210   -4.8110 hn        1 MOL      0.314381
    161 H79         9.4100    5.4650   -4.6780 hn        1 MOL      0.314381
    162 N14         5.0350    0.6430    0.5670 n         1 MOL     -0.143594
    163 C49         4.2270    1.1370    1.6740 c3        1 MOL     -0.045562
    164 C50         4.7890    0.6830    2.9940 c         1 MOL      0.478140
    165 O22         4.8880    1.5140    3.8900 o         1 MOL     -0.560088
    166 C51         2.7830    0.5850    1.4690 c3        1 MOL      0.122438
    167 C52         2.0780    1.3940    0.3460 c3        1 MOL      0.007544
    168 C53         0.7800    0.7160   -0.0720 c         1 MOL      0.790115
    169 O23         0.6930   -0.5200   -0.3370 o         1 MOL     -0.813746
    170 O24        -0.2600    1.4310   -0.2040 o         1 MOL     -0.813746
    171 H80         5.1790   -0.3540    0.4430 hn        1 MOL     -0.097891
    172 H81         4.2780    2.2280    1.7000 h1        1 MOL      0.071664
    173 H82         2.2240    0.6800    2.3990 hc        1 MOL      0.024825
    174 H83         2.8470   -0.4760    1.2340 hc        1 MOL      0.024825
    175 H84         2.7350    1.4550   -0.5220 hc        1 MOL     -0.014740
    176 H85         1.9940    2.4200    0.7010 hc        1 MOL     -0.014740
    177 N15         5.3260   -0.5220    3.1690 n         1 MOL     -0.205979
    178 C54         5.7510   -1.2610    4.4100 c3        1 MOL     -0.269793
    179 H86         6.0540   -0.5440    5.1730 h1        1 MOL      0.121311
    180 H87         4.9180   -1.8560    4.7830 h1        1 MOL      0.121311
    181 H88         6.5890   -1.9160    4.1740 h1        1 MOL      0.121311
    182 H89         5.0720   -1.1250    2.3960 hn        1 MOL      0.168833
    183 Ca1        -1.8450   -0.4940   -1.2880 Ca        1 MOL      1.748179
    184 O25        -1.3950   -2.9970   -2.4830 oh        1 MOL     -0.842580
    185 H90        -0.7780   -3.2510   -3.1780 ho        1 MOL      0.399412
    186 H91        -2.2460   -2.9550   -2.9210 ho        1 MOL      0.399412
    187 O26        -0.2580   -0.2700   -3.3560 oh        1 MOL     -0.842580
    188 H92         0.6120    0.0740   -3.5050 ho        1 MOL      0.399412
    189 H93        -0.8010    0.1280   -4.0370 ho        1 MOL      0.399412
@<TRIPOS>BOND
     1    1    2 1   
     2    1    4 1   
     3    1    5 1   
     4    1    6 1   
     5    2    3 2   
     6    2    7 1   
     7    7    8 1   
     8    7   15 1   
     9    8    9 1   
    10    8   11 1   
    11    8   16 1   
    12    9   10 2   
    13    9   19 1   
    14   11   12 1   
    15   11   17 1   
    16   11   18 1   
    17   12   13 1   
    18   12   14 1   
    19   19   20 1   
    20   19   28 1   
    21   20   21 1   
    22   20   23 1   
    23   20   29 1   
    24   21   22 2   
    25   21   41 1   
    26   23   24 1   
    27   23   30 1   
    28   23   31 1   
    29   24   25 1   
    30   24   32 1   
    31   24   33 1   
    32   25   26 1   
    33   25   34 1   
    34   25   35 1   
    35   26   27 1   
    36   26   36 1   
    37   26   37 1   
    38   27   38 1   
    39   27   39 1   
    40   27   40 1   
    41   41   42 1   
    42   41   49 1   
    43   42   43 1   
    44   42   45 1   
    45   42   50 1   
    46   43   44 2   
    47   43   53 1   
    48   45   46 1   
    49   45   51 1   
    50   45   52 1   
    51   46   47 1   
    52   46   48 1   
    53   53   54 1   
    54   53   57 1   
    55   54   55 1   
    56   54   58 1   
    57   54   59 1   
    58   55   56 2   
    59   55   60 1   
    60   60   61 1   
    61   60   68 1   
    62   61   62 1   
    63   61   64 1   
    64   61   69 1   
    65   62   63 2   
    66   62   72 1   
    67   64   65 1   
    68   64   70 1   
    69   64   71 1   
    70   65   66 1   
    71   65   67 1   
    72   72   73 1   
    73   72   76 1   
    74   73   74 1   
    75   73   77 1   
    76   73   78 1   
    77   74   75 2   
    78   74   79 1   
    79   79   80 1   
    80   79   86 1   
    81   80   81 1   
    82   80   83 1   
    83   80   87 1   
    84   81   82 2   
    85   81   93 1   
    86   83   84 1   
    87   83   85 1   
    88   83   88 1   
    89   84   90 1   
    90   84   91 1   
    91   84   92 1   
    92   85   89 1   
    93   93   94 1   
    94   93  101 1   
    95   94   95 1   
    96   94   97 1   
    97   94  102 1   
    98   95   96 2   
    99   95  112 1   
   100   97   98 1   
   101   97   99 1   
   102   97  103 1   
   103   98  100 1   
   104   98  104 1   
   105   98  105 1   
   106   99  106 1   
   107   99  107 1   
   108   99  108 1   
   109  100  109 1   
   110  100  110 1   
   111  100  111 1   
   112  112  113 1   
   113  112  119 1   
   114  113  114 1   
   115  113  116 1   
   116  113  120 1   
   117  114  115 2   
   118  114  126 1   
   119  116  117 1   
   120  116  118 1   
   121  116  121 1   
   122  117  123 1   
   123  117  124 1   
   124  117  125 1   
   125  118  122 1   
   126  126  127 1   
   127  126  133 1   
   128  127  128 1   
   129  127  130 1   
   130  127  134 1   
   131  128  129 2   
   132  128  140 1   
   133  130  131 1   
   134  130  132 1   
   135  130  135 1   
   136  131  137 1   
   137  131  138 1   
   138  131  139 1   
   139  132  136 1   
   140  140  141 1   
   141  140  149 1   
   142  141  142 1   
   143  141  144 1   
   144  141  150 1   
   145  142  143 2   
   146  142  162 1   
   147  144  145 1   
   148  144  151 1   
   149  144  152 1   
   150  145  146 1   
   151  145  153 1   
   152  145  154 1   
   153  146  147 1   
   154  146  155 1   
   155  146  156 1   
   156  147  148 1   
   157  147  157 1   
   158  147  158 1   
   159  148  159 1   
   160  148  160 1   
   161  148  161 1   
   162  162  163 1   
   163  162  171 1   
   164  163  164 1   
   165  163  166 1   
   166  163  172 1   
   167  164  165 2   
   168  164  177 1   
   169  166  167 1   
   170  166  173 1   
   171  166  174 1   
   172  167  168 1   
   173  167  175 1   
   174  167  176 1   
   175  168  169 1   
   176  168  170 1   
   177  177  178 1   
   178  177  182 1   
   179  178  179 1   
   180  178  180 1   
   181  178  181 1   
   182  184  185 1   
   183  184  186 1   
   184  187  188 1   
   185  187  189 1   
@<TRIPOS>SUBSTRUCTURE
     1 MOL         1 TEMP              0 ****  ****    0 ROOT
