@<TRIPOS>MOLECULE
MOL
  189   185     1     0     0
SMALL
resp


@<TRIPOS>ATOM
      1 C1         -0.3670    2.8280   -5.2760 c3        1 MOL     -0.097100
      2 C2          0.2760    2.4890   -3.8680 c         1 MOL      0.563050
      3 O1         -0.3620    2.8440   -2.8390 o         1 MOL     -0.620288
      4 H1         -0.0380    3.8180   -5.5960 hc        1 MOL      0.033673
      5 H2         -0.0500    2.0860   -6.0090 hc        1 MOL      0.033673
      6 H3         -1.4540    2.8170   -5.1930 hc        1 MOL      0.033673
      7 N1          1.4350    1.8800   -3.7050 n         1 MOL     -0.522222
      8 C3          2.0850    1.5230   -2.4410 c3        1 MOL      0.250150
      9 C4          2.7320    2.7720   -1.7830 c         1 MOL      0.313973
     10 O2          3.9670    2.9060   -1.9400 o         1 MOL     -0.510662
     11 C5          3.0280    0.3180   -2.6410 c3        1 MOL     -0.231805
     12 C6          3.8380   -0.0190   -1.4080 c         1 MOL      0.600304
     13 O3          3.3110    0.0740   -0.2710 o         1 MOL     -0.633073
     14 O4          5.0810   -0.3280   -1.6070 o         1 MOL     -0.633073
     15 H4          2.0080    1.6510   -4.4990 hn        1 MOL      0.294172
     16 H5          1.3880    1.1470   -1.6910 h1        1 MOL      0.038984
     17 H6          3.7170    0.5830   -3.4390 hc        1 MOL      0.054488
     18 H7          2.4800   -0.5600   -2.9930 hc        1 MOL      0.054488
     19 N2          2.0440    3.6460   -1.0710 n         1 MOL     -0.042392
     20 C7          2.5130    5.0280   -0.5570 c3        1 MOL     -0.209733
     21 C8          3.5320    4.8350    0.5790 c         1 MOL      0.417716
     22 O5          4.3480    5.7210    0.7680 o         1 MOL     -0.524116
     23 C9          1.3380    5.8540   -0.1570 c3        1 MOL      0.046377
     24 C10         0.1630    5.8590   -1.2280 c3        1 MOL     -0.072416
     25 C11         0.6600    6.1330   -2.6970 c3        1 MOL     -0.127086
     26 C12         0.9450    7.5810   -2.8970 c3        1 MOL      0.128161
     27 N3          0.5240    8.0530   -4.2270 n4        1 MOL     -0.340180
     28 H8          1.0700    3.3930   -1.0070 hn        1 MOL      0.248853
     29 H9          3.1830    5.5500   -1.2410 h1        1 MOL      0.130325
     30 H10         1.6160    6.8740    0.1030 hc        1 MOL      0.025643
     31 H11         0.9710    5.4890    0.8010 hc        1 MOL      0.025643
     32 H12        -0.5450    6.6430   -0.9620 hc        1 MOL      0.053680
     33 H13        -0.3870    4.9170   -1.2170 hc        1 MOL      0.053680
     34 H14        -0.1520    5.8050   -3.3560 hc        1 MOL      0.055703
     35 H15         1.5550    5.5520   -2.9020 hc        1 MOL      0.055703
     36 H16         1.9950    7.8580   -2.8090 hx        1 MOL      0.052011
     37 H17         0.2950    8.1110   -2.2120 hx        1 MOL      0.052011
     38 H18         0.8950    7.5630   -5.0210 hn        1 MOL      0.315662
     39 H19        -0.4720    7.9540   -4.2980 hn        1 MOL      0.315662
     40 H20         0.8030    9.0260   -4.3130 hn        1 MOL      0.315662
     41 N4          3.6700    3.6120    1.1740 n         1 MOL     -0.050838
     42 C13         4.7160    3.3340    2.2510 c3        1 MOL     -0.277499
     43 C14         6.0920    2.9740    1.7510 c         1 MOL      0.506495
     44 O6          7.1140    3.2960    2.3560 o         1 MOL     -0.527913
     45 C15         4.2540    2.2100    3.1520 c3        1 MOL      0.141868
     46 C16         2.7700    2.0800    3.5410 c         1 MOL      0.551189
     47 O7          1.9330    1.4970    2.7420 o         1 MOL     -0.622079
     48 O8          2.4320    2.6710    4.6150 o         1 MOL     -0.622079
     49 H21         2.9130    2.9810    0.9350 hn        1 MOL      0.093157
     50 H22         4.7640    4.2620    2.8300 h1        1 MOL      0.129771
     51 H23         4.8750    2.1580    4.0470 hc        1 MOL      0.000989
     52 H24         4.5130    1.2880    2.6350 hc        1 MOL      0.000989
     53 N5          6.1560    2.2350    0.6250 n         1 MOL     -0.192934
     54 C17         7.3530    1.5540    0.1490 c3        1 MOL     -0.312876
     55 C18         7.6490    0.3260    1.0210 c         1 MOL      0.506037
     56 O9          8.8300   -0.0890    1.0510 o         1 MOL     -0.588657
     57 H25         5.2410    2.0370    0.2500 hn        1 MOL      0.163775
     58 H26         8.1470    2.2930    0.1710 h1        1 MOL      0.165301
     59 H27         7.2290    1.2110   -0.8770 h1        1 MOL      0.165301
     60 N6          6.7070   -0.3140    1.6520 n         1 MOL     -0.174208
     61 C19         6.8740   -1.6460    2.3060 c3        1 MOL     -0.079652
     62 C20         6.7570   -2.7830    1.2290 c         1 MOL      0.397834
     63 O10         6.9770   -3.9040    1.5380 o         1 MOL     -0.524713
     64 C21         5.7830   -1.8450    3.3850 c3        1 MOL     -0.171245
     65 C22         4.3430   -1.7100    2.8500 c         1 MOL      0.746221
     66 O11         3.5430   -0.9270    3.4140 o         1 MOL     -0.763588
     67 O12         3.9200   -2.2960    1.8330 o         1 MOL     -0.763588
     68 H28         5.7750    0.0690    1.6660 hn        1 MOL      0.145702
     69 H29         7.8000   -1.6710    2.8690 h1        1 MOL      0.126831
     70 H30         5.8900   -1.0730    4.1440 hc        1 MOL      0.064894
     71 H31         5.9980   -2.7740    3.9130 hc        1 MOL      0.064894
     72 N7          6.3300   -2.5180   -0.0160 n         1 MOL     -0.063870
     73 C23         6.3590   -3.4370   -1.1840 c3        1 MOL     -0.210519
     74 C24         5.1170   -4.2400   -1.3880 c         1 MOL      0.676003
     75 O13         5.1450   -5.2010   -2.1610 o         1 MOL     -0.621191
     76 H32         6.0320   -1.5780   -0.2120 hn        1 MOL      0.134876
     77 H33         7.2650   -4.0350   -1.0870 h1        1 MOL      0.096162
     78 H34         6.4330   -2.7910   -2.0600 h1        1 MOL      0.096162
     79 N8          3.9620   -3.8680   -0.8240 n         1 MOL     -0.399569
     80 C25         2.6880   -4.5270   -1.1960 c3        1 MOL      0.018325
     81 C26         1.5550   -3.4830   -1.2300 c         1 MOL      0.555984
     82 O14         1.5840   -2.5750   -0.4440 o         1 MOL     -0.525900
     83 C27         2.3580   -5.6050   -0.2100 c3        1 MOL      0.172022
     84 C28         3.2920   -6.9060   -0.3320 c3        1 MOL     -0.446149
     85 O15         2.3210   -5.2960    1.1870 oh        1 MOL     -0.512562
     86 H35         3.9780   -3.1440   -0.1140 hn        1 MOL      0.317496
     87 H36         2.7800   -5.0190   -2.1590 h1        1 MOL      0.083092
     88 H37         1.3210   -5.8120   -0.5100 h1        1 MOL      0.005790
     89 H38         2.2860   -6.1130    1.6850 ho        1 MOL      0.376757
     90 H39         3.2520   -7.2640   -1.3600 hc        1 MOL      0.132988
     91 H40         4.2990   -6.6070   -0.0280 hc        1 MOL      0.132988
     92 H41         2.9070   -7.8160    0.1260 hc        1 MOL      0.132988
     93 N9          0.4720   -3.8200   -1.9930 n         1 MOL     -0.510466
     94 C29        -0.7580   -3.0100   -2.2040 c3        1 MOL     -0.102840
     95 C30        -1.8710   -3.6580   -1.3250 c         1 MOL      0.533510
     96 O16        -2.1260   -4.8750   -1.4900 o         1 MOL     -0.572530
     97 C31        -1.1280   -2.8490   -3.6870 c3        1 MOL      0.295829
     98 C32         0.0490   -2.1090   -4.4660 c3        1 MOL      0.081538
     99 C33        -2.3570   -2.0260   -3.8360 c3        1 MOL     -0.472827
    100 C34        -0.3760   -2.1350   -5.9340 c3        1 MOL     -0.011527
    101 H42         0.5520   -4.6630   -2.5340 hn        1 MOL      0.288241
    102 H43        -0.6210   -1.9960   -1.8110 h1        1 MOL      0.100465
    103 H44        -1.4000   -3.8080   -4.1410 hc        1 MOL     -0.007841
    104 H45         0.9490   -2.7300   -4.4440 hc        1 MOL     -0.026060
    105 H46         0.1840   -1.0540   -4.2460 hc        1 MOL     -0.026060
    106 H47        -2.0780   -0.9980   -3.6070 hc        1 MOL      0.093289
    107 H48        -2.6930   -2.1260   -4.8660 hc        1 MOL      0.093289
    108 H49        -3.1130   -2.3710   -3.1290 hc        1 MOL      0.093289
    109 H50        -0.5890   -3.1780   -6.1710 hc        1 MOL     -0.005686
    110 H51        -1.2050   -1.4910   -6.2190 hc        1 MOL     -0.005686
    111 H52         0.4290   -1.8110   -6.6010 hc        1 MOL     -0.005686
    112 N10        -2.4530   -2.9280   -0.3550 n         1 MOL     -0.003130
    113 C35        -3.6520   -3.2430    0.4730 c3        1 MOL     -0.214959
    114 C36        -4.9500   -2.9130   -0.2070 c         1 MOL      0.522769
    115 O17        -5.0150   -2.3920   -1.3650 o         1 MOL     -0.480063
    116 C37        -3.6010   -2.5490    1.8430 c3        1 MOL      0.197218
    117 C38        -2.4030   -3.0580    2.6690 c3        1 MOL     -0.085901
    118 O18        -3.4540   -1.1430    1.6400 oh        1 MOL     -0.643368
    119 H53        -1.9550   -2.0750   -0.1670 hn        1 MOL      0.118959
    120 H54        -3.6530   -4.3160    0.6920 h1        1 MOL      0.089354
    121 H55        -4.4570   -2.7320    2.4930 h1        1 MOL      0.058695
    122 H56        -2.5770   -0.9890    1.2640 ho        1 MOL      0.417357
    123 H57        -2.7400   -3.7340    3.4460 hc        1 MOL      0.023060
    124 H58        -1.6670   -3.5700    2.0450 hc        1 MOL      0.023060
    125 H59        -1.9920   -2.1750    3.1750 hc        1 MOL      0.023060
    126 N11        -6.1330   -3.0970    0.4380 n         1 MOL     -0.396308
    127 C39        -7.4650   -2.6060   -0.0630 c3        1 MOL     -0.055918
    128 C40        -7.5960   -1.1090    0.0570 c         1 MOL      0.301626
    129 O19        -7.9900   -0.3990   -0.8670 o         1 MOL     -0.462187
    130 C41        -8.7410   -3.1670    0.5640 c3        1 MOL      0.455327
    131 C42        -8.8320   -4.6500    0.4730 c3        1 MOL     -0.492699
    132 O20        -8.7010   -2.8420    1.9540 oh        1 MOL     -0.635164
    133 H60        -6.1000   -3.5780    1.3290 hn        1 MOL      0.270512
    134 H61        -7.5790   -2.7700   -1.1290 h1        1 MOL      0.116581
    135 H62        -9.6030   -2.7010    0.0780 h1        1 MOL     -0.000961
    136 H63        -9.6320   -2.8410    2.1650 ho        1 MOL      0.387742
    137 H64        -8.0140   -5.1100    1.0280 hc        1 MOL      0.128347
    138 H65        -9.7530   -4.8850    0.9980 hc        1 MOL      0.128347
    139 H66        -8.8420   -4.8810   -0.5960 hc        1 MOL      0.128347
    140 N12        -6.9650   -0.5320    1.1150 n         1 MOL     -0.251115
    141 C43        -6.9720    0.9050    1.3880 c3        1 MOL     -0.018459
    142 C44        -6.0950    1.5890    0.3400 c         1 MOL      0.393261
    143 O21        -6.6130    2.6160   -0.1600 o         1 MOL     -0.552007
    144 C45        -6.5590    1.1630    2.8580 c3        1 MOL     -0.063978
    145 C46        -7.0500    2.5370    3.3600 c3        1 MOL      0.012451
    146 C47        -6.7530    2.7820    4.8550 c3        1 MOL     -0.024197
    147 C48        -7.0080    4.2940    5.1540 c3        1 MOL      0.136596
    148 N13        -6.7780    4.6190    6.5460 n4        1 MOL     -0.375121
    149 H67        -6.3990   -1.1800    1.6380 hn        1 MOL      0.223383
    150 H68        -7.9990    1.2580    1.2760 h1        1 MOL      0.112759
    151 H69        -5.4770    1.2500    2.8000 hc        1 MOL      0.028234
    152 H70        -6.9780    0.3520    3.4560 hc        1 MOL      0.028234
    153 H71        -8.1280    2.5900    3.2090 hc        1 MOL      0.014063
    154 H72        -6.5780    3.3250    2.7600 hc        1 MOL      0.014063
    155 H73        -5.7070    2.6050    5.0880 hc        1 MOL      0.035147
    156 H74        -7.3870    2.1340    5.4540 hc        1 MOL      0.035147
    157 H75        -8.0100    4.5660    4.8350 hx        1 MOL      0.051737
    158 H76        -6.3460    4.9320    4.5660 hx        1 MOL      0.051737
    159 H77        -7.0520    5.5900    6.6210 hn        1 MOL      0.297187
    160 H78        -7.3390    4.1300    7.2230 hn        1 MOL      0.297187
    161 H79        -5.7960    4.5040    6.7530 hn        1 MOL      0.297187
    162 N14        -4.9740    1.0430   -0.1180 n         1 MOL      0.032234
    163 C49        -4.1760    1.6690   -1.2200 c3        1 MOL     -0.326337
    164 C50        -4.7950    1.7460   -2.6350 c         1 MOL      0.542098
    165 O22        -4.4660    2.5610   -3.4660 o         1 MOL     -0.561696
    166 C51        -2.7340    1.0200   -1.3600 c3        1 MOL     -0.009732
    167 C52        -2.0100    1.5760   -0.2060 c3        1 MOL     -0.214222
    168 C53        -0.8650    0.6840    0.2990 c         1 MOL      0.939855
    169 O23         0.2460    1.1470    0.3530 o         1 MOL     -0.849307
    170 O24        -1.0460   -0.5090    0.7190 o         1 MOL     -0.849307
    171 H80        -4.5950    0.2540    0.3820 hn        1 MOL      0.159545
    172 H81        -4.1100    2.7380   -1.0150 h1        1 MOL      0.131490
    173 H82        -2.3230    1.2720   -2.3380 hc        1 MOL      0.092879
    174 H83        -2.8110   -0.0620   -1.2300 hc        1 MOL      0.092879
    175 H84        -2.6420    1.6840    0.6820 hc        1 MOL      0.045978
    176 H85        -1.6490    2.5670   -0.4660 hc        1 MOL      0.045978
    177 N15        -5.8460    0.9840   -2.8070 n         1 MOL     -0.225975
    178 C54        -6.7650    1.1800   -3.9840 c3        1 MOL     -0.224833
    179 H86        -6.6050    2.1710   -4.4090 h1        1 MOL      0.104413
    180 H87        -6.5560    0.4240   -4.7400 h1        1 MOL      0.104413
    181 H88        -7.8010    1.0900   -3.6550 h1        1 MOL      0.104413
    182 H89        -6.1710    0.4180   -2.0230 hn        1 MOL      0.220011
    183 Ca1         1.7540   -0.8940    1.5790 Ca        1 MOL      1.735397
    184 O25         1.0110   -3.3170    2.2590 oh        1 MOL     -0.766085
    185 H90         1.1250   -3.8490    3.0320 ho        1 MOL      0.374083
    186 H91         1.0400   -3.9350    1.5250 ho        1 MOL      0.374083
    187 O26         0.1160   -0.6200    3.5300 oh        1 MOL     -0.766085
    188 H92        -0.6940   -0.8650    3.9780 ho        1 MOL      0.374083
    189 H93         0.1120    0.3440    3.5600 ho        1 MOL      0.374083
@<TRIPOS>BOND
     1    1    2 1   
     2    1    4 1   
     3    1    5 1   
     4    1    6 1   
     5    2    3 2   
     6    2    7 1   
     7    7    8 1   
     8    7   15 1   
     9    8    9 1   
    10    8   11 1   
    11    8   16 1   
    12    9   10 2   
    13    9   19 1   
    14   11   12 1   
    15   11   17 1   
    16   11   18 1   
    17   12   13 1   
    18   12   14 1   
    19   19   20 1   
    20   19   28 1   
    21   20   21 1   
    22   20   23 1   
    23   20   29 1   
    24   21   22 2   
    25   21   41 1   
    26   23   24 1   
    27   23   30 1   
    28   23   31 1   
    29   24   25 1   
    30   24   32 1   
    31   24   33 1   
    32   25   26 1   
    33   25   34 1   
    34   25   35 1   
    35   26   27 1   
    36   26   36 1   
    37   26   37 1   
    38   27   38 1   
    39   27   39 1   
    40   27   40 1   
    41   41   42 1   
    42   41   49 1   
    43   42   43 1   
    44   42   45 1   
    45   42   50 1   
    46   43   44 2   
    47   43   53 1   
    48   45   46 1   
    49   45   51 1   
    50   45   52 1   
    51   46   47 1   
    52   46   48 1   
    53   53   54 1   
    54   53   57 1   
    55   54   55 1   
    56   54   58 1   
    57   54   59 1   
    58   55   56 2   
    59   55   60 1   
    60   60   61 1   
    61   60   68 1   
    62   61   62 1   
    63   61   64 1   
    64   61   69 1   
    65   62   63 2   
    66   62   72 1   
    67   64   65 1   
    68   64   70 1   
    69   64   71 1   
    70   65   66 1   
    71   65   67 1   
    72   72   73 1   
    73   72   76 1   
    74   73   74 1   
    75   73   77 1   
    76   73   78 1   
    77   74   75 2   
    78   74   79 1   
    79   79   80 1   
    80   79   86 1   
    81   80   81 1   
    82   80   83 1   
    83   80   87 1   
    84   81   82 2   
    85   81   93 1   
    86   83   84 1   
    87   83   85 1   
    88   83   88 1   
    89   84   90 1   
    90   84   91 1   
    91   84   92 1   
    92   85   89 1   
    93   93   94 1   
    94   93  101 1   
    95   94   95 1   
    96   94   97 1   
    97   94  102 1   
    98   95   96 2   
    99   95  112 1   
   100   97   98 1   
   101   97   99 1   
   102   97  103 1   
   103   98  100 1   
   104   98  104 1   
   105   98  105 1   
   106   99  106 1   
   107   99  107 1   
   108   99  108 1   
   109  100  109 1   
   110  100  110 1   
   111  100  111 1   
   112  112  113 1   
   113  112  119 1   
   114  113  114 1   
   115  113  116 1   
   116  113  120 1   
   117  114  115 2   
   118  114  126 1   
   119  116  117 1   
   120  116  118 1   
   121  116  121 1   
   122  117  123 1   
   123  117  124 1   
   124  117  125 1   
   125  118  122 1   
   126  126  127 1   
   127  126  133 1   
   128  127  128 1   
   129  127  130 1   
   130  127  134 1   
   131  128  129 2   
   132  128  140 1   
   133  130  131 1   
   134  130  132 1   
   135  130  135 1   
   136  131  137 1   
   137  131  138 1   
   138  131  139 1   
   139  132  136 1   
   140  140  141 1   
   141  140  149 1   
   142  141  142 1   
   143  141  144 1   
   144  141  150 1   
   145  142  143 2   
   146  142  162 1   
   147  144  145 1   
   148  144  151 1   
   149  144  152 1   
   150  145  146 1   
   151  145  153 1   
   152  145  154 1   
   153  146  147 1   
   154  146  155 1   
   155  146  156 1   
   156  147  148 1   
   157  147  157 1   
   158  147  158 1   
   159  148  159 1   
   160  148  160 1   
   161  148  161 1   
   162  162  163 1   
   163  162  171 1   
   164  163  164 1   
   165  163  166 1   
   166  163  172 1   
   167  164  165 2   
   168  164  177 1   
   169  166  167 1   
   170  166  173 1   
   171  166  174 1   
   172  167  168 1   
   173  167  175 1   
   174  167  176 1   
   175  168  169 1   
   176  168  170 1   
   177  177  178 1   
   178  177  182 1   
   179  178  179 1   
   180  178  180 1   
   181  178  181 1   
   182  184  185 1   
   183  184  186 1   
   184  187  188 1   
   185  187  189 1   
@<TRIPOS>SUBSTRUCTURE
     1 MOL         1 TEMP              0 ****  ****    0 ROOT
