@<TRIPOS>MOLECULE
MOL
  179   176     1     0     0
SMALL
resp


@<TRIPOS>ATOM
      1 C1         -0.2260    5.0460   -4.4290 c3        1 MOL     -0.504828
      2 C2          0.2010    4.1770   -3.1250 c         1 MOL      0.553994
      3 O1         -0.4400    4.2930   -2.0800 o         1 MOL     -0.522594
      4 H1          0.5220    4.9190   -5.2110 hc        1 MOL      0.137988
      5 H2         -1.1940    4.7030   -4.7940 hc        1 MOL      0.137988
      6 H3         -0.2930    6.0990   -4.1580 hc        1 MOL      0.137988
      7 N1          1.2620    3.3890   -3.1450 n         1 MOL     -0.300192
      8 C3          1.8290    2.6770   -2.0400 c3        1 MOL      0.241427
      9 C4          2.7660    3.6180   -1.2360 c         1 MOL      0.150367
     10 O2          3.9610    3.7980   -1.5050 o         1 MOL     -0.461921
     11 C5          2.4610    1.4110   -2.5920 c3        1 MOL     -0.244729
     12 C6          3.1090    0.5760   -1.4850 c         1 MOL      0.706702
     13 O3          2.5730    0.5920   -0.3460 o         1 MOL     -0.706885
     14 O4          4.1620   -0.0620   -1.7980 o         1 MOL     -0.706885
     15 H4          1.8070    3.3750   -3.9940 hn        1 MOL      0.240619
     16 H5          1.0810    2.3280   -1.3320 h1        1 MOL     -0.027194
     17 H6          3.2080    1.5800   -3.3660 hc        1 MOL      0.064175
     18 H7          1.6270    0.8380   -2.9720 hc        1 MOL      0.064175
     19 N2          2.1900    4.3950   -0.3560 n         1 MOL     -0.063550
     20 C7          2.8120    5.6520    0.2270 c3        1 MOL     -0.112927
     21 C8          3.9030    5.4040    1.2930 c         1 MOL      0.363669
     22 O5          4.8690    6.0790    1.4400 o         1 MOL     -0.515480
     23 C9          1.6990    6.5300    0.8900 c3        1 MOL     -0.016522
     24 C10         0.6040    6.8590   -0.1730 c3        1 MOL      0.069290
     25 C11         1.0090    7.4740   -1.4690 c3        1 MOL     -0.282062
     26 C12         1.6640    8.8250   -1.2840 c3        1 MOL      0.286276
     27 N3          1.8390    9.3660   -2.6050 n4        1 MOL     -0.515025
     28 H8          1.1930    4.2840   -0.2300 hn        1 MOL      0.253398
     29 H9          3.2660    6.2580   -0.5600 h1        1 MOL      0.114773
     30 H10         2.1350    7.4620    1.2480 hc        1 MOL      0.043404
     31 H11         1.2500    6.0730    1.7770 hc        1 MOL      0.043404
     32 H12         0.0150    7.5560    0.4250 hc        1 MOL      0.031875
     33 H13        -0.0460    5.9880   -0.2960 hc        1 MOL      0.031875
     34 H14         0.1950    7.4440   -2.1950 hc        1 MOL      0.064646
     35 H15         1.7880    6.8410   -1.9110 hc        1 MOL      0.064646
     36 H16         2.6310    8.6650   -0.8240 hx        1 MOL      0.021619
     37 H17         1.0930    9.4730   -0.6120 hx        1 MOL      0.021619
     38 H18         0.9870    9.2200   -3.1320 hn        1 MOL      0.365181
     39 H19         2.1000   10.3350   -2.5600 hn        1 MOL      0.365181
     40 H20         2.6340    8.9280   -3.0350 hn        1 MOL      0.365181
     41 N4          3.8190    4.2260    1.9500 n         1 MOL     -0.190841
     42 C13         4.7650    3.5080    2.8180 c3        1 MOL      0.020245
     43 C14         5.7130    2.6410    1.9620 c         1 MOL      0.461302
     44 O6          6.6940    2.2610    2.5760 o         1 MOL     -0.536106
     45 C15         3.9410    2.7170    3.8330 c3        1 MOL     -0.214515
     46 C16         3.0430    1.6880    3.1910 c         1 MOL      0.731481
     47 O7          1.9630    2.0240    2.6550 o         1 MOL     -0.719943
     48 O8          3.4590    0.5290    2.9050 o         1 MOL     -0.719943
     49 H21         2.9810    3.7340    1.7000 hn        1 MOL      0.087095
     50 H22         5.3120    4.2950    3.3450 h1        1 MOL      0.102857
     51 H23         3.2860    3.3040    4.4780 hc        1 MOL      0.059967
     52 H24         4.6370    2.2160    4.4930 hc        1 MOL      0.059967
     53 N5          5.3930    2.3590    0.7080 n         1 MOL     -0.023497
     54 C17         6.4010    1.7580   -0.1360 c3        1 MOL     -0.496590
     55 C18         6.5570    0.2280    0.0180 c         1 MOL      0.605137
     56 O9          7.5830   -0.2760   -0.4190 o         1 MOL     -0.588212
     57 H25         4.5120    2.5850    0.2830 hn        1 MOL      0.178006
     58 H26         7.3600    2.2120    0.1190 h1        1 MOL      0.183997
     59 H27         6.0900    1.8250   -1.1750 h1        1 MOL      0.183997
     60 N6          5.7600   -0.3850    0.8120 n         1 MOL     -0.109058
     61 C19         5.9190   -1.8250    1.1900 c3        1 MOL     -0.220793
     62 C20         5.7320   -2.8580    0.0300 c         1 MOL      0.236535
     63 O10         6.1160   -4.0550    0.0610 o         1 MOL     -0.440249
     64 C21         5.0950   -2.1720    2.4490 c3        1 MOL     -0.046822
     65 C22         3.7210   -2.7050    2.1430 c         1 MOL      0.244928
     66 N7          3.2960   -3.7300    2.8640 n         1 MOL     -0.457053
     67 O11         3.0290   -2.1700    1.2760 o         1 MOL     -0.361948
     68 H28         4.9320    0.0980    1.1370 hn        1 MOL      0.142278
     69 H29         6.9350   -1.8830    1.5870 h1        1 MOL      0.146508
     70 H30         5.0360   -1.3720    3.1840 hc        1 MOL      0.079642
     71 H31         5.6170   -2.9710    2.9770 hc        1 MOL      0.079642
     72 H32         3.8610   -4.0180    3.6540 hn        1 MOL      0.274883
     73 H33         2.3360   -4.0150    2.8100 hn        1 MOL      0.274883
     74 N8          5.1830   -2.4320   -1.1130 n         1 MOL      0.078644
     75 C23         4.9890   -3.2040   -2.3070 c3        1 MOL     -0.490444
     76 C24         3.6750   -3.9730   -2.2760 c         1 MOL      0.802894
     77 O12         3.3900   -4.7740   -3.0980 o         1 MOL     -0.582780
     78 H34         4.9280   -1.4470   -1.1840 hn        1 MOL      0.229213
     79 H35         5.8720   -3.8230   -2.4730 h1        1 MOL      0.161496
     80 H36         5.0450   -2.5270   -3.1610 h1        1 MOL      0.161496
     81 N9          2.7240   -3.5960   -1.4360 n         1 MOL     -0.690932
     82 C25         1.3300   -4.0690   -1.2220 c3        1 MOL      0.402529
     83 C26         0.3840   -2.8070   -0.9650 c         1 MOL      0.416131
     84 O13         0.6940   -1.7210   -0.5340 o         1 MOL     -0.666837
     85 C27         1.2330   -5.0720   -0.0450 c3        1 MOL      0.132798
     86 C28         2.1300   -6.3000   -0.2820 ca        1 MOL     -0.058299
     87 C29         3.5090   -6.1650   -0.0280 ca        1 MOL     -0.223376
     88 C30         1.5930   -7.4280   -0.9040 ca        1 MOL     -0.223376
     89 C31         4.3910   -7.1800   -0.4500 ca        1 MOL     -0.109094
     90 C32         2.4860   -8.4730   -1.2550 ca        1 MOL     -0.109094
     91 C33         3.8560   -8.3270   -1.0590 ca        1 MOL      0.249916
     92 O14         4.6470   -9.2570   -1.6580 oh        1 MOL     -0.484862
     93 H37         2.9910   -2.9410   -0.7160 hn        1 MOL      0.426690
     94 H38         0.9830   -4.5350   -2.1370 h1        1 MOL     -0.003487
     95 H39         0.2050   -5.4030    0.0910 hc        1 MOL     -0.058099
     96 H40         1.4580   -4.5260    0.8700 hc        1 MOL     -0.058099
     97 H41         3.9750   -5.2910    0.4210 ha        1 MOL      0.122044
     98 H42         0.5300   -7.6390   -0.9690 ha        1 MOL      0.122044
     99 H43         5.4600   -7.1300   -0.3010 ha        1 MOL      0.100366
    100 H44         2.1200   -9.4530   -1.5270 ha        1 MOL      0.100366
    101 H45         4.2430   -9.8180   -2.3220 ho        1 MOL      0.360278
    102 N10        -0.8960   -3.0220   -1.3420 n         1 MOL     -0.534131
    103 C34        -2.0220   -2.0190   -1.1940 c3        1 MOL      0.218826
    104 C35        -3.2560   -2.8080   -0.7680 c         1 MOL      0.401267
    105 O15        -3.6080   -3.7320   -1.4560 o         1 MOL     -0.520395
    106 C36        -2.1820   -1.1980   -2.5130 c3        1 MOL     -0.067741
    107 C37        -1.0840   -0.1580   -2.7880 c3        1 MOL      0.113866
    108 C38        -3.6310   -0.6020   -2.7680 c3        1 MOL     -0.087963
    109 C39        -1.2540    0.7620   -4.0280 c3        1 MOL     -0.072327
    110 H46        -1.1180   -3.9150   -1.7350 hn        1 MOL      0.281558
    111 H47        -1.8830   -1.2660   -0.4220 h1        1 MOL      0.085508
    112 H48        -2.0680   -1.9690   -3.2820 hc        1 MOL      0.032604
    113 H49        -0.1030   -0.5870   -3.0180 hc        1 MOL      0.024954
    114 H50        -1.0190    0.5550   -1.9580 hc        1 MOL      0.024954
    115 H51        -4.3300   -1.4270   -2.7880 hc        1 MOL      0.016169
    116 H52        -3.9700    0.1740   -2.0750 hc        1 MOL      0.016169
    117 H53        -3.6380   -0.1480   -3.7560 hc        1 MOL      0.016169
    118 H54        -1.9620    1.5820   -4.0500 hc        1 MOL      0.003630
    119 H55        -0.2710    1.2430   -4.1170 hc        1 MOL      0.003630
    120 H56        -1.3720    0.1360   -4.9020 hc        1 MOL      0.003630
    121 N11        -3.9950   -2.3910    0.2300 n         1 MOL     -0.279882
    122 C40        -5.3450   -2.8680    0.6050 c3        1 MOL      0.038431
    123 C41        -6.4570   -2.2460   -0.1960 c         1 MOL      0.642801
    124 O16        -6.1820   -1.1530   -0.7600 o         1 MOL     -0.496905
    125 C42        -5.5370   -2.8100    2.1310 c3        1 MOL     -0.276020
    126 O17        -5.3650   -1.4060    2.3950 oh        1 MOL     -0.417994
    127 H57        -3.5060   -1.7740    0.8730 hn        1 MOL      0.207504
    128 H58        -5.4590   -3.9060    0.2780 h1        1 MOL      0.039213
    129 H59        -4.7080   -3.2880    2.6460 h1        1 MOL      0.158299
    130 H60        -6.5030   -3.2040    2.4450 h1        1 MOL      0.158299
    131 H61        -4.4850   -1.2680    2.7310 ho        1 MOL      0.379379
    132 N12        -7.6210   -2.8750   -0.0850 n         1 MOL     -0.593206
    133 C43        -8.8420   -2.3040   -0.4670 c3        1 MOL      0.305671
    134 C44        -9.1760   -0.9570    0.2580 c         1 MOL      0.309870
    135 O18       -10.1350   -0.2590   -0.2860 o         1 MOL     -0.523889
    136 C45        -9.8140   -3.4860   -0.1840 c3        1 MOL     -0.320032
    137 H62        -7.6170   -3.5990    0.6140 hn        1 MOL      0.300012
    138 H63        -8.8580   -2.0330   -1.5170 h1        1 MOL      0.067261
    139 H64        -9.5100   -4.3370   -0.7870 hc        1 MOL      0.095870
    140 H65        -9.9490   -3.6720    0.8810 hc        1 MOL      0.095870
    141 H66       -10.7350   -3.1840   -0.6850 hc        1 MOL      0.095870
    142 N13        -8.5090   -0.6380    1.3130 n         1 MOL     -0.332488
    143 C46        -8.5680    0.6810    2.0060 c3        1 MOL      0.287543
    144 C47        -7.5550    1.7320    1.5610 c         1 MOL      0.220940
    145 O19        -7.8270    2.8890    1.2440 o         1 MOL     -0.467798
    146 C48        -8.4650    0.3250    3.5140 c3        1 MOL     -0.237467
    147 H67        -7.8500   -1.3350    1.6210 hn        1 MOL      0.256486
    148 H68        -9.5740    1.0720    1.8620 h1        1 MOL      0.058378
    149 H69        -9.1590   -0.4660    3.7740 hc        1 MOL      0.056552
    150 H70        -7.4790   -0.0640    3.7890 hc        1 MOL      0.056552
    151 H71        -8.7980    1.2330    4.0020 hc        1 MOL      0.056552
    152 N14        -6.3130    1.3290    1.3110 n         1 MOL     -0.029280
    153 C49        -5.3390    2.1810    0.6810 c3        1 MOL     -0.001080
    154 C50        -5.6860    2.6250   -0.7320 c         1 MOL      0.359529
    155 O20        -5.5630    3.8100   -1.0570 o         1 MOL     -0.538477
    156 C51        -4.0140    1.4210    0.5760 c3        1 MOL      0.115947
    157 C52        -3.2530    1.4700    1.9620 c3        1 MOL     -0.273796
    158 C53        -1.7920    0.8040    1.7960 c         1 MOL      0.700930
    159 O21        -1.6720   -0.4100    1.7770 o         1 MOL     -0.714136
    160 O22        -0.7910    1.5130    1.5530 o         1 MOL     -0.714136
    161 H72        -5.9650    0.4470    1.6560 hn        1 MOL      0.058417
    162 H73        -5.1070    3.1190    1.1770 h1        1 MOL      0.069585
    163 H74        -3.3690    1.8600   -0.1820 hc        1 MOL      0.018897
    164 H75        -4.3080    0.3930    0.3660 hc        1 MOL      0.018897
    165 H76        -3.8960    1.0380    2.7280 hc        1 MOL      0.034688
    166 H77        -3.1190    2.5320    2.1780 hc        1 MOL      0.034688
    167 N15        -6.3490    1.7170   -1.4740 n         1 MOL      0.039403
    168 C54        -6.8630    2.0180   -2.8080 c3        1 MOL     -0.356612
    169 H78        -6.1600    1.6550   -3.5580 h1        1 MOL      0.119674
    170 H79        -7.8260    1.5270   -2.9460 h1        1 MOL      0.119674
    171 H80        -6.9840    3.0950   -2.9170 h1        1 MOL      0.119674
    172 H81        -6.4810    0.8010   -1.0610 hn        1 MOL      0.105577
    173 Ca1         1.2050   -0.2120    1.6020 Ca        1 MOL      1.749072
    174 O23         0.4000   -2.4960    2.5890 oh        1 MOL     -0.844527
    175 H82        -0.0000   -3.2350    2.1120 ho        1 MOL      0.413324
    176 H83         0.5420   -2.8400    3.4790 ho        1 MOL      0.413324
    177 O24         0.5270   -0.1440    4.1230 oh        1 MOL     -0.844527
    178 H84         0.3400    0.6240    4.6650 ho        1 MOL      0.413324
    179 H85         0.1520   -0.8770    4.6080 ho        1 MOL      0.413324
@<TRIPOS>BOND
     1    1    2 1   
     2    1    4 1   
     3    1    5 1   
     4    1    6 1   
     5    2    3 2   
     6    2    7 1   
     7    7    8 1   
     8    7   15 1   
     9    8    9 1   
    10    8   11 1   
    11    8   16 1   
    12    9   10 2   
    13    9   19 1   
    14   11   12 1   
    15   11   17 1   
    16   11   18 1   
    17   12   13 1   
    18   12   14 1   
    19   19   20 1   
    20   19   28 1   
    21   20   21 1   
    22   20   23 1   
    23   20   29 1   
    24   21   22 2   
    25   21   41 1   
    26   23   24 1   
    27   23   30 1   
    28   23   31 1   
    29   24   25 1   
    30   24   32 1   
    31   24   33 1   
    32   25   26 1   
    33   25   34 1   
    34   25   35 1   
    35   26   27 1   
    36   26   36 1   
    37   26   37 1   
    38   27   38 1   
    39   27   39 1   
    40   27   40 1   
    41   41   42 1   
    42   41   49 1   
    43   42   43 1   
    44   42   45 1   
    45   42   50 1   
    46   43   44 2   
    47   43   53 1   
    48   45   46 1   
    49   45   51 1   
    50   45   52 1   
    51   46   47 1   
    52   46   48 1   
    53   53   54 1   
    54   53   57 1   
    55   54   55 1   
    56   54   58 1   
    57   54   59 1   
    58   55   56 2   
    59   55   60 1   
    60   60   61 1   
    61   60   68 1   
    62   61   62 1   
    63   61   64 1   
    64   61   69 1   
    65   62   63 2   
    66   62   74 1   
    67   64   65 1   
    68   64   70 1   
    69   64   71 1   
    70   65   66 1   
    71   65   67 2   
    72   66   72 1   
    73   66   73 1   
    74   74   75 1   
    75   74   78 1   
    76   75   76 1   
    77   75   79 1   
    78   75   80 1   
    79   76   77 2   
    80   76   81 1   
    81   81   82 1   
    82   81   93 1   
    83   82   83 1   
    84   82   85 1   
    85   82   94 1   
    86   83   84 2   
    87   83  102 1   
    88   85   86 1   
    89   85   95 1   
    90   85   96 1   
    91   86   87 ar  
    92   86   88 ar  
    93   87   89 ar  
    94   87   97 1   
    95   88   90 ar  
    96   88   98 1   
    97   89   91 ar  
    98   89   99 1   
    99   90   91 ar  
   100   90  100 1   
   101   91   92 1   
   102   92  101 1   
   103  102  103 1   
   104  102  110 1   
   105  103  104 1   
   106  103  106 1   
   107  103  111 1   
   108  104  105 2   
   109  104  121 1   
   110  106  107 1   
   111  106  108 1   
   112  106  112 1   
   113  107  109 1   
   114  107  113 1   
   115  107  114 1   
   116  108  115 1   
   117  108  116 1   
   118  108  117 1   
   119  109  118 1   
   120  109  119 1   
   121  109  120 1   
   122  121  122 1   
   123  121  127 1   
   124  122  123 1   
   125  122  125 1   
   126  122  128 1   
   127  123  124 2   
   128  123  132 1   
   129  125  126 1   
   130  125  129 1   
   131  125  130 1   
   132  126  131 1   
   133  132  133 1   
   134  132  137 1   
   135  133  134 1   
   136  133  136 1   
   137  133  138 1   
   138  134  135 2   
   139  134  142 1   
   140  136  139 1   
   141  136  140 1   
   142  136  141 1   
   143  142  143 1   
   144  142  147 1   
   145  143  144 1   
   146  143  146 1   
   147  143  148 1   
   148  144  145 2   
   149  144  152 1   
   150  146  149 1   
   151  146  150 1   
   152  146  151 1   
   153  152  153 1   
   154  152  161 1   
   155  153  154 1   
   156  153  156 1   
   157  153  162 1   
   158  154  155 2   
   159  154  167 1   
   160  156  157 1   
   161  156  163 1   
   162  156  164 1   
   163  157  158 1   
   164  157  165 1   
   165  157  166 1   
   166  158  159 1   
   167  158  160 1   
   168  167  168 1   
   169  167  172 1   
   170  168  169 1   
   171  168  170 1   
   172  168  171 1   
   173  174  175 1   
   174  174  176 1   
   175  177  178 1   
   176  177  179 1   
@<TRIPOS>SUBSTRUCTURE
     1 MOL         1 TEMP              0 ****  ****    0 ROOT
