@<TRIPOS>MOLECULE
MOL
  189   185     1     0     0
SMALL
resp


@<TRIPOS>ATOM
      1 C1         -0.5340    2.7220   -4.7210 c3        1 MOL     -0.446908
      2 C2          0.3070    2.6280   -3.4260 c         1 MOL      0.748223
      3 O1         -0.1100    3.1020   -2.3690 o         1 MOL     -0.617534
      4 H1         -0.1380    2.0290   -5.4640 hc        1 MOL      0.110694
      5 H2         -1.5700    2.4640   -4.5020 hc        1 MOL      0.110694
      6 H3         -0.4870    3.7380   -5.1120 hc        1 MOL      0.110694
      7 N1          1.5030    2.1270   -3.5520 n         1 MOL     -0.660179
      8 C3          2.4040    1.8280   -2.4010 c3        1 MOL      0.361760
      9 C4          3.1450    3.0160   -1.8090 c         1 MOL      0.397698
     10 O2          4.3620    3.2550   -1.8580 o         1 MOL     -0.478978
     11 C5          3.4930    0.7420   -2.7660 c3        1 MOL     -0.406342
     12 C6          4.3180    0.1350   -1.5500 c         1 MOL      0.655781
     13 O3          3.7800    0.0310   -0.3790 o         1 MOL     -0.599455
     14 O4          5.3610   -0.4680   -1.9180 o         1 MOL     -0.599455
     15 H4          1.8630    1.9900   -4.4870 hn        1 MOL      0.328191
     16 H5          1.7670    1.3930   -1.6240 h1        1 MOL      0.032432
     17 H6          4.1200    1.1120   -3.5660 hc        1 MOL      0.099999
     18 H7          2.8950   -0.1250   -3.0670 hc        1 MOL      0.099999
     19 N2          2.3590    3.9450   -1.2560 n         1 MOL     -0.329499
     20 C7          2.7890    5.2770   -0.7390 c3        1 MOL     -0.120611
     21 C8          3.6410    5.0690    0.5270 c         1 MOL      0.529113
     22 O5          3.9980    6.0740    1.1010 o         1 MOL     -0.562177
     23 C9          1.4920    6.0980   -0.5670 c3        1 MOL      0.056977
     24 C10         0.8940    6.5610   -1.8630 c3        1 MOL     -0.013937
     25 C11        -0.3260    7.4990   -1.5870 c3        1 MOL     -0.036143
     26 C12        -0.9450    8.3800   -2.7420 c3        1 MOL     -0.082893
     27 N3         -1.5400    7.5020   -3.7770 n4        1 MOL     -0.324799
     28 H8          1.3520    3.8440   -1.3040 hn        1 MOL      0.291438
     29 H9          3.3840    5.8420   -1.4550 h1        1 MOL      0.112629
     30 H10         1.6610    6.9200    0.1270 hc        1 MOL      0.026415
     31 H11         0.7070    5.5150   -0.0890 hc        1 MOL      0.026415
     32 H12         0.6650    5.7380   -2.5540 hc        1 MOL      0.003095
     33 H13         1.6890    7.1600   -2.3040 hc        1 MOL      0.003095
     34 H14        -0.0290    8.1820   -0.7860 hc        1 MOL      0.051931
     35 H15        -1.1630    7.0420   -1.0570 hc        1 MOL      0.051931
     36 H16        -0.1650    9.0210   -3.1350 hx        1 MOL      0.118262
     37 H17        -1.7120    9.0160   -2.3030 hx        1 MOL      0.118262
     38 H18        -2.0840    8.0750   -4.3930 hn        1 MOL      0.325817
     39 H19        -0.8310    6.9820   -4.2730 hn        1 MOL      0.325817
     40 H20        -2.1680    6.8090   -3.3980 hn        1 MOL      0.325817
     41 N4          3.8550    3.8170    1.0690 n         1 MOL     -0.253464
     42 C13         4.8030    3.5890    2.2200 c3        1 MOL      0.040728
     43 C14         5.8460    2.4470    1.9040 c         1 MOL      0.344487
     44 O6          6.6790    2.1330    2.8090 o         1 MOL     -0.488241
     45 C15         3.9730    3.2340    3.4540 c3        1 MOL     -0.218655
     46 C16         2.9430    2.1360    3.1730 c         1 MOL      0.887541
     47 O7          3.0350    1.4250    2.1790 o         1 MOL     -0.755504
     48 O8          1.9000    2.1110    3.8640 o         1 MOL     -0.755504
     49 H21         3.4690    3.0380    0.5650 hn        1 MOL      0.128910
     50 H22         5.4600    4.4550    2.3660 h1        1 MOL      0.103598
     51 H23         3.4460    4.1430    3.7400 hc        1 MOL      0.049563
     52 H24         4.5900    3.0160    4.3230 hc        1 MOL      0.049563
     53 N5          6.0190    2.0510    0.6730 n         1 MOL     -0.103224
     54 C17         7.2530    1.4400    0.1230 c3        1 MOL      0.014387
     55 C18         7.5320    0.1210    0.7980 c         1 MOL      0.466298
     56 O9          8.6220    0.0790    1.3780 o         1 MOL     -0.556038
     57 H25         5.2940    2.2210   -0.0130 hn        1 MOL      0.058428
     58 H26         8.0920    2.1340    0.2040 h1        1 MOL      0.050351
     59 H27         7.1490    1.2160   -0.9360 h1        1 MOL      0.050351
     60 N6          6.6280   -0.9010    0.8730 n         1 MOL     -0.475835
     61 C19         6.8930   -2.1530    1.6540 c3        1 MOL      0.408066
     62 C20         6.7140   -3.3250    0.7220 c         1 MOL      0.225647
     63 O10         6.8380   -4.4950    1.1210 o         1 MOL     -0.514304
     64 C21         6.0010   -2.2680    2.8480 c3        1 MOL     -0.388142
     65 C22         4.4980   -2.0040    2.3930 c         1 MOL      0.772801
     66 O11         4.0070   -2.4690    1.3720 o         1 MOL     -0.709967
     67 O12         3.7700   -1.2050    3.0850 o         1 MOL     -0.709967
     68 H28         5.6860   -0.7130    0.5720 hn        1 MOL      0.299473
     69 H29         7.9200   -2.2260    2.0300 h1        1 MOL      0.038127
     70 H30         6.2960   -1.4730    3.5270 hc        1 MOL      0.101471
     71 H31         6.0820   -3.2730    3.2530 hc        1 MOL      0.101471
     72 N7          6.3590   -3.0960   -0.5460 n         1 MOL     -0.213183
     73 C23         6.1870   -4.1290   -1.5520 c3        1 MOL      0.002962
     74 C24         4.7830   -4.6780   -1.6820 c         1 MOL      0.467137
     75 O13         4.6230   -5.7050   -2.3980 o         1 MOL     -0.578237
     76 H32         6.1560   -2.1730   -0.8850 hn        1 MOL      0.166208
     77 H33         6.8530   -4.9690   -1.3600 h1        1 MOL      0.068653
     78 H34         6.5260   -3.7610   -2.5150 h1        1 MOL      0.068653
     79 N8          3.7720   -4.1030   -1.0010 n         1 MOL     -0.172444
     80 C25         2.3700   -4.5700   -1.0190 c3        1 MOL     -0.473763
     81 C26         1.3000   -3.4320   -1.1740 c         1 MOL      0.828443
     82 O14         1.4330   -2.4080   -0.5370 o         1 MOL     -0.714339
     83 C27         2.0220   -5.5800    0.1280 c3        1 MOL      0.640166
     84 C28         2.3430   -6.9430   -0.1710 c3        1 MOL     -0.560209
     85 O15         2.7990   -5.2850    1.2190 oh        1 MOL     -0.676091
     86 H35         4.0340   -3.2680   -0.4950 hn        1 MOL      0.215135
     87 H36         2.2780   -5.1100   -1.9670 h1        1 MOL      0.133935
     88 H37         0.9610   -5.4160    0.3090 h1        1 MOL     -0.086187
     89 H38         3.2350   -4.4340    1.1280 ho        1 MOL      0.467903
     90 H39         2.1520   -7.5630    0.7170 hc        1 MOL      0.143533
     91 H40         1.8100   -7.3420   -1.0350 hc        1 MOL      0.143533
     92 H41         3.4140   -7.0020   -0.3530 hc        1 MOL      0.143533
     93 N9          0.2750   -3.6520   -1.9850 n         1 MOL     -0.542072
     94 C29        -0.8730   -2.7860   -2.1280 c3        1 MOL      0.161826
     95 C30        -1.9950   -3.4030   -1.2230 c         1 MOL      0.467697
     96 O16        -2.1490   -4.6380   -1.2640 o         1 MOL     -0.573184
     97 C31        -1.3880   -2.6590   -3.5990 c3        1 MOL      0.036653
     98 C32        -0.3810   -2.0350   -4.5180 c3        1 MOL      0.034158
     99 C33        -2.7120   -1.7640   -3.7040 c3        1 MOL     -0.286821
    100 C34        -0.6840   -2.1530   -6.0070 c3        1 MOL     -0.060131
    101 H42         0.3070   -4.5280   -2.4850 hn        1 MOL      0.296161
    102 H43        -0.6050   -1.8150   -1.7270 h1        1 MOL      0.056792
    103 H44        -1.5190   -3.6800   -3.9640 hc        1 MOL      0.035067
    104 H45         0.6090   -2.4350   -4.2790 hc        1 MOL     -0.005933
    105 H46        -0.3100   -0.9660   -4.2840 hc        1 MOL     -0.005933
    106 H47        -3.5280   -2.2030   -3.1270 hc        1 MOL      0.053101
    107 H48        -2.5610   -0.7400   -3.3500 hc        1 MOL      0.053101
    108 H49        -2.9830   -1.7040   -4.7500 hc        1 MOL      0.053101
    109 H50        -0.6920   -3.2190   -6.2250 hc        1 MOL      0.018100
    110 H51        -1.6420   -1.7450   -6.3400 hc        1 MOL      0.018100
    111 H52         0.0280   -1.7060   -6.7100 hc        1 MOL      0.018100
    112 N10        -2.7100   -2.5600   -0.5260 n         1 MOL      0.025401
    113 C35        -3.6650   -2.9380    0.5070 c3        1 MOL     -0.170367
    114 C36        -5.0780   -2.5370    0.1130 c         1 MOL      0.372454
    115 O17        -5.2820   -1.7450   -0.8070 o         1 MOL     -0.357062
    116 C37        -3.2790   -2.2850    1.8190 c3        1 MOL      0.294758
    117 C38        -2.0270   -2.8760    2.4220 c3        1 MOL     -0.238105
    118 O18        -3.2440   -0.9100    1.6320 oh        1 MOL     -0.591080
    119 H53        -2.5610   -1.5780   -0.6710 hn        1 MOL     -0.007356
    120 H54        -3.6250   -4.0050    0.7600 h1        1 MOL      0.114790
    121 H55        -4.0280   -2.3120    2.6130 h1        1 MOL      0.014546
    122 H56        -2.3910   -0.6600    1.2820 ho        1 MOL      0.310614
    123 H57        -2.3150   -3.7340    3.0370 hc        1 MOL      0.074200
    124 H58        -1.3630   -3.0150    1.5690 hc        1 MOL      0.074200
    125 H59        -1.7230   -2.1450    3.1670 hc        1 MOL      0.074200
    126 N11        -6.1290   -3.1900    0.6650 n         1 MOL     -0.311500
    127 C39        -7.4880   -2.7210    0.2210 c3        1 MOL     -0.037674
    128 C40        -7.7650   -1.1900    0.3410 c         1 MOL      0.265193
    129 O19        -8.5060   -0.5950   -0.4970 o         1 MOL     -0.427397
    130 C41        -8.5570   -3.4780    1.0460 c3        1 MOL      0.578588
    131 C42        -9.9180   -3.3210    0.3110 c3        1 MOL     -0.563118
    132 O20        -8.3880   -4.8630    1.2210 oh        1 MOL     -0.622197
    133 H60        -6.0010   -3.8920    1.3800 hn        1 MOL      0.220673
    134 H61        -7.5700   -2.9000   -0.8430 h1        1 MOL      0.117821
    135 H62        -8.5810   -3.1390    2.0820 h1        1 MOL     -0.071306
    136 H63        -8.8630   -5.0670    2.0360 ho        1 MOL      0.383181
    137 H64       -10.3560   -2.3410    0.4940 hc        1 MOL      0.138238
    138 H65       -10.0550   -3.8010   -0.6610 hc        1 MOL      0.138238
    139 H66       -10.5670   -3.9940    0.8600 hc        1 MOL      0.138238
    140 N12        -7.1200   -0.5820    1.3380 n         1 MOL     -0.285511
    141 C43        -6.9780    0.9030    1.4660 c3        1 MOL     -0.004835
    142 C44        -6.2160    1.5390    0.3290 c         1 MOL      0.208622
    143 O21        -6.8240    2.3880   -0.3800 o         1 MOL     -0.466153
    144 C45        -6.2720    1.1420    2.7980 c3        1 MOL     -0.058886
    145 C46        -5.8820    2.5930    3.1150 c3        1 MOL     -0.069129
    146 C47        -5.3360    2.9490    4.5260 c3        1 MOL     -0.084608
    147 C48        -6.3670    3.1880    5.6440 c3        1 MOL      0.120605
    148 N13        -5.7900    3.5920    6.9380 n4        1 MOL     -0.375305
    149 H67        -6.6440   -1.1310    2.0470 hn        1 MOL      0.202129
    150 H68        -7.9690    1.3390    1.5460 h1        1 MOL      0.121274
    151 H69        -5.4160    0.4750    2.8600 hc        1 MOL      0.039212
    152 H70        -6.8600    0.7410    3.6190 hc        1 MOL      0.039212
    153 H71        -6.7430    3.2260    2.9060 hc        1 MOL      0.062871
    154 H72        -5.0650    2.8270    2.4270 hc        1 MOL      0.062871
    155 H73        -4.6350    3.7790    4.3810 hc        1 MOL      0.060214
    156 H74        -4.7580    2.1320    4.9620 hc        1 MOL      0.060214
    157 H75        -6.9860    2.3030    5.7890 hx        1 MOL      0.054881
    158 H76        -7.1050    3.9170    5.2970 hx        1 MOL      0.054881
    159 H77        -6.4820    3.5200    7.6730 hn        1 MOL      0.306560
    160 H78        -5.0060    3.0210    7.2370 hn        1 MOL      0.306560
    161 H79        -5.4570    4.5440    6.9550 hn        1 MOL      0.306560
    162 N14        -5.0040    1.0900    0.0360 n         1 MOL      0.046038
    163 C49        -4.2460    1.7590   -1.0630 c3        1 MOL     -0.228043
    164 C50        -4.7740    1.5710   -2.4620 c         1 MOL      0.468238
    165 O22        -4.6340    2.4350   -3.2590 o         1 MOL     -0.564406
    166 C51        -2.7540    1.2850   -0.9990 c3        1 MOL      0.102067
    167 C52        -1.9160    1.7240    0.1940 c3        1 MOL     -0.111254
    168 C53        -0.6690    0.9450    0.5140 c         1 MOL      0.701700
    169 O23         0.4700    1.4230    0.4670 o         1 MOL     -0.689440
    170 O24        -0.8300   -0.2620    0.7030 o         1 MOL     -0.689440
    171 H80        -4.4880    0.4230    0.5820 hn        1 MOL      0.132227
    172 H81        -4.1590    2.8410   -0.9630 h1        1 MOL      0.103842
    173 H82        -2.1440    1.6290   -1.8260 hc        1 MOL      0.044435
    174 H83        -2.8140    0.1950   -0.8990 hc        1 MOL      0.044435
    175 H84        -2.5600    1.6750    1.0750 hc        1 MOL      0.000986
    176 H85        -1.6670    2.7790    0.0650 hc        1 MOL      0.000986
    177 N15        -5.4770    0.4540   -2.7920 n         1 MOL     -0.005026
    178 C54        -6.1600    0.2370   -4.0470 c3        1 MOL     -0.270403
    179 H86        -5.4780   -0.2350   -4.7540 h1        1 MOL      0.101182
    180 H87        -7.0200   -0.4120   -3.8840 h1        1 MOL      0.101182
    181 H88        -6.4960    1.1930   -4.4480 h1        1 MOL      0.101182
    182 H89        -5.5240   -0.2300   -2.0480 hn        1 MOL      0.135819
    183 Ca1         1.9150   -0.6710    1.3570 Ca        1 MOL      1.733481
    184 O25         0.5900   -0.1420    3.5920 oh        1 MOL     -0.818106
    185 H90        -0.3490   -0.1270    3.7800 ho        1 MOL      0.381528
    186 H91         0.8950    0.7320    3.8400 ho        1 MOL      0.381528
    187 O26         1.1140   -2.8550    2.7070 oh        1 MOL     -0.818106
    188 H92         1.6620   -3.5770    3.0050 ho        1 MOL      0.381528
    189 H93         0.3130   -2.9360    3.2280 ho        1 MOL      0.381528
@<TRIPOS>BOND
     1    1    2 1   
     2    1    4 1   
     3    1    5 1   
     4    1    6 1   
     5    2    3 2   
     6    2    7 1   
     7    7    8 1   
     8    7   15 1   
     9    8    9 1   
    10    8   11 1   
    11    8   16 1   
    12    9   10 2   
    13    9   19 1   
    14   11   12 1   
    15   11   17 1   
    16   11   18 1   
    17   12   13 1   
    18   12   14 1   
    19   19   20 1   
    20   19   28 1   
    21   20   21 1   
    22   20   23 1   
    23   20   29 1   
    24   21   22 2   
    25   21   41 1   
    26   23   24 1   
    27   23   30 1   
    28   23   31 1   
    29   24   25 1   
    30   24   32 1   
    31   24   33 1   
    32   25   26 1   
    33   25   34 1   
    34   25   35 1   
    35   26   27 1   
    36   26   36 1   
    37   26   37 1   
    38   27   38 1   
    39   27   39 1   
    40   27   40 1   
    41   41   42 1   
    42   41   49 1   
    43   42   43 1   
    44   42   45 1   
    45   42   50 1   
    46   43   44 2   
    47   43   53 1   
    48   45   46 1   
    49   45   51 1   
    50   45   52 1   
    51   46   47 1   
    52   46   48 1   
    53   53   54 1   
    54   53   57 1   
    55   54   55 1   
    56   54   58 1   
    57   54   59 1   
    58   55   56 2   
    59   55   60 1   
    60   60   61 1   
    61   60   68 1   
    62   61   62 1   
    63   61   64 1   
    64   61   69 1   
    65   62   63 2   
    66   62   72 1   
    67   64   65 1   
    68   64   70 1   
    69   64   71 1   
    70   65   66 1   
    71   65   67 1   
    72   72   73 1   
    73   72   76 1   
    74   73   74 1   
    75   73   77 1   
    76   73   78 1   
    77   74   75 2   
    78   74   79 1   
    79   79   80 1   
    80   79   86 1   
    81   80   81 1   
    82   80   83 1   
    83   80   87 1   
    84   81   82 2   
    85   81   93 1   
    86   83   84 1   
    87   83   85 1   
    88   83   88 1   
    89   84   90 1   
    90   84   91 1   
    91   84   92 1   
    92   85   89 1   
    93   93   94 1   
    94   93  101 1   
    95   94   95 1   
    96   94   97 1   
    97   94  102 1   
    98   95   96 2   
    99   95  112 1   
   100   97   98 1   
   101   97   99 1   
   102   97  103 1   
   103   98  100 1   
   104   98  104 1   
   105   98  105 1   
   106   99  106 1   
   107   99  107 1   
   108   99  108 1   
   109  100  109 1   
   110  100  110 1   
   111  100  111 1   
   112  112  113 1   
   113  112  119 1   
   114  113  114 1   
   115  113  116 1   
   116  113  120 1   
   117  114  115 2   
   118  114  126 1   
   119  116  117 1   
   120  116  118 1   
   121  116  121 1   
   122  117  123 1   
   123  117  124 1   
   124  117  125 1   
   125  118  122 1   
   126  126  127 1   
   127  126  133 1   
   128  127  128 1   
   129  127  130 1   
   130  127  134 1   
   131  128  129 2   
   132  128  140 1   
   133  130  131 1   
   134  130  132 1   
   135  130  135 1   
   136  131  137 1   
   137  131  138 1   
   138  131  139 1   
   139  132  136 1   
   140  140  141 1   
   141  140  149 1   
   142  141  142 1   
   143  141  144 1   
   144  141  150 1   
   145  142  143 2   
   146  142  162 1   
   147  144  145 1   
   148  144  151 1   
   149  144  152 1   
   150  145  146 1   
   151  145  153 1   
   152  145  154 1   
   153  146  147 1   
   154  146  155 1   
   155  146  156 1   
   156  147  148 1   
   157  147  157 1   
   158  147  158 1   
   159  148  159 1   
   160  148  160 1   
   161  148  161 1   
   162  162  163 1   
   163  162  171 1   
   164  163  164 1   
   165  163  166 1   
   166  163  172 1   
   167  164  165 2   
   168  164  177 1   
   169  166  167 1   
   170  166  173 1   
   171  166  174 1   
   172  167  168 1   
   173  167  175 1   
   174  167  176 1   
   175  168  169 1   
   176  168  170 1   
   177  177  178 1   
   178  177  182 1   
   179  178  179 1   
   180  178  180 1   
   181  178  181 1   
   182  184  185 1   
   183  184  186 1   
   184  187  188 1   
   185  187  189 1   
@<TRIPOS>SUBSTRUCTURE
     1 MOL         1 TEMP              0 ****  ****    0 ROOT
