@<TRIPOS>MOLECULE
MOL
  179   176     1     0     0
SMALL
resp


@<TRIPOS>ATOM
      1 C1          1.2210    4.8610    5.8900 c3        1 MOL     -0.375969
      2 C2          1.1390    4.4490    4.3940 c         1 MOL      0.731058
      3 O1          2.0980    4.4840    3.6740 o         1 MOL     -0.564668
      4 H1          0.2280    4.8080    6.3360 hc        1 MOL      0.091569
      5 H2          1.8930    4.1840    6.4190 hc        1 MOL      0.091569
      6 H3          1.5990    5.8810    5.9670 hc        1 MOL      0.091569
      7 N1         -0.0890    4.1730    3.9690 n         1 MOL     -0.605676
      8 C3         -0.4080    3.8330    2.5590 c3        1 MOL      0.149787
      9 C4         -0.7230    5.1030    1.7520 c         1 MOL      0.563482
     10 O2         -0.8610    6.1780    2.3020 o         1 MOL     -0.557975
     11 C5         -1.6240    2.7950    2.7790 c3        1 MOL     -0.084148
     12 C6         -2.0740    2.0280    1.4910 c         1 MOL      1.024748
     13 O3         -2.5240    0.8690    1.5690 o         1 MOL     -0.847517
     14 O4         -1.8330    2.5160    0.3460 o         1 MOL     -0.847517
     15 H4         -0.8950    4.2460    4.5700 hn        1 MOL      0.319384
     16 H5          0.4550    3.3910    2.0790 h1        1 MOL      0.068302
     17 H6         -2.5350    3.2460    3.1670 hc        1 MOL     -0.010592
     18 H7         -1.1960    2.0690    3.4720 hc        1 MOL     -0.010592
     19 N2         -0.8040    4.9940    0.4560 n         1 MOL     -0.448046
     20 C7         -1.0360    6.0030   -0.6190 c3        1 MOL      0.046569
     21 C8         -2.3010    5.7630   -1.3190 c         1 MOL      0.506088
     22 O5         -2.7890    6.5580   -2.0670 o         1 MOL     -0.562691
     23 C9          0.1700    6.0150   -1.5490 c3        1 MOL     -0.242905
     24 C10         0.6240    4.5960   -2.0770 c3        1 MOL     -0.166825
     25 C11         1.3840    4.6950   -3.4380 c3        1 MOL      0.011185
     26 C12         1.6080    3.3410   -4.1880 c3        1 MOL     -0.125356
     27 N3          0.3450    2.4930   -4.2720 n4        1 MOL     -0.273417
     28 H8         -0.7850    4.0290    0.1590 hn        1 MOL      0.252031
     29 H9         -1.1130    7.0030   -0.1750 h1        1 MOL      0.113612
     30 H10         1.0080    6.4930   -1.0390 hc        1 MOL      0.114000
     31 H11         0.0270    6.7560   -2.3270 hc        1 MOL      0.114000
     32 H12        -0.2260    3.9200   -2.2200 hc        1 MOL      0.142527
     33 H13         1.3410    4.1670   -1.3840 hc        1 MOL      0.142527
     34 H14         2.2970    5.2640   -3.2550 hc        1 MOL      0.043917
     35 H15         0.8570    5.3640   -4.1090 hc        1 MOL      0.043917
     36 H16         2.3770    2.7710   -3.6680 hx        1 MOL      0.102773
     37 H17         1.8470    3.5270   -5.2410 hx        1 MOL      0.102773
     38 H18        -0.2110    2.5670   -3.4350 hn        1 MOL      0.295021
     39 H19        -0.2810    2.8830   -4.9570 hn        1 MOL      0.295021
     40 H20         0.5760    1.5220   -4.4020 hn        1 MOL      0.295021
     41 N4         -2.9920    4.5890   -1.1860 n         1 MOL     -0.332238
     42 C13        -4.2550    4.2770   -1.8750 c3        1 MOL      0.152372
     43 C14        -5.3240    3.6800   -0.9170 c         1 MOL      0.331200
     44 O6         -6.4660    3.6390   -1.3350 o         1 MOL     -0.512874
     45 C15        -3.9350    3.2660   -2.9910 c3        1 MOL     -0.278646
     46 C16        -3.1440    1.9950   -2.5250 c         1 MOL      0.869912
     47 O7         -2.0340    1.7510   -2.9440 o         1 MOL     -0.805801
     48 O8         -3.6040    1.2020   -1.7090 o         1 MOL     -0.805801
     49 H21        -2.5620    3.9230   -0.5650 hn        1 MOL      0.128565
     50 H22        -4.6630    5.1340   -2.4120 h1        1 MOL      0.117422
     51 H23        -3.2630    3.7790   -3.6780 hc        1 MOL      0.060577
     52 H24        -4.8800    2.9490   -3.4520 hc        1 MOL      0.060577
     53 N5         -5.0250    3.1370    0.2490 n         1 MOL     -0.068167
     54 C17        -5.9560    2.6230    1.3050 c3        1 MOL     -0.345605
     55 C18        -6.6210    1.2500    0.9220 c         1 MOL      0.673185
     56 O9         -7.7150    0.9610    1.3810 o         1 MOL     -0.585113
     57 H25        -4.0300    3.0530    0.4240 hn        1 MOL      0.080831
     58 H26        -6.7180    3.4030    1.3780 h1        1 MOL      0.147661
     59 H27        -5.4170    2.4850    2.2380 h1        1 MOL      0.147661
     60 N6         -5.9390    0.4770    0.0690 n         1 MOL     -0.448559
     61 C19        -6.5930   -0.6670   -0.5420 c3        1 MOL      0.100808
     62 C20        -6.7800   -1.9590    0.3510 c         1 MOL      0.385615
     63 O10        -7.3230   -2.9660   -0.0600 o         1 MOL     -0.499343
     64 C21        -5.8600   -1.0340   -1.8520 c3        1 MOL     -0.428096
     65 C22        -4.6620   -1.9230   -1.5570 c         1 MOL      0.706117
     66 N7         -4.6390   -3.1680   -1.9570 n         1 MOL     -0.625526
     67 O11        -3.7670   -1.5620   -0.8330 o         1 MOL     -0.680622
     68 H28        -5.1350    0.9440   -0.3140 hn        1 MOL      0.385625
     69 H29        -7.5980   -0.3240   -0.7580 h1        1 MOL      0.108020
     70 H30        -5.5440   -0.1890   -2.4680 hc        1 MOL      0.138412
     71 H31        -6.5370   -1.6730   -2.4360 hc        1 MOL      0.138412
     72 H32        -5.3580   -3.4820   -2.6010 hn        1 MOL      0.319034
     73 H33        -3.7750   -3.6920   -1.8990 hn        1 MOL      0.319034
     74 N8         -6.2480   -1.8060    1.5310 n         1 MOL     -0.215415
     75 C23        -6.2820   -2.8380    2.5380 c3        1 MOL     -0.117779
     76 C24        -4.9130   -3.4920    2.7440 c         1 MOL      0.498804
     77 O12        -4.7570   -4.3370    3.6330 o         1 MOL     -0.549823
     78 H34        -5.7960   -0.9430    1.7990 hn        1 MOL      0.237765
     79 H35        -6.9710   -3.6640    2.3500 h1        1 MOL      0.111572
     80 H36        -6.5520   -2.4560    3.5170 h1        1 MOL      0.111572
     81 N9         -3.8910   -3.2310    1.8510 n         1 MOL     -0.336100
     82 C25        -2.5460   -3.8540    2.0690 c3        1 MOL      0.097556
     83 C26        -1.3620   -2.9300    1.7260 c         1 MOL      0.589028
     84 O13        -1.5450   -1.8770    1.1160 o         1 MOL     -0.561988
     85 C27        -2.4860   -5.2550    1.4750 c3        1 MOL     -0.221433
     86 C28        -2.7120   -5.5390    0.0050 ca        1 MOL      0.121808
     87 C29        -1.8360   -5.0050   -0.9400 ca        1 MOL     -0.181595
     88 C30        -3.8250   -6.2200   -0.4470 ca        1 MOL     -0.181595
     89 C31        -1.9580   -5.2420   -2.3110 ca        1 MOL     -0.238388
     90 C32        -3.9940   -6.4780   -1.8140 ca        1 MOL     -0.238388
     91 C33        -3.0510   -5.9960   -2.7450 ca        1 MOL      0.273415
     92 O14        -3.2520   -6.1450   -4.0700 oh        1 MOL     -0.473479
     93 H37        -3.9940   -2.6440    1.0310 hn        1 MOL      0.232456
     94 H38        -2.4240   -3.9760    3.1490 h1        1 MOL      0.072352
     95 H39        -3.2570   -5.8410    1.9960 hc        1 MOL      0.085157
     96 H40        -1.5200   -5.6780    1.7470 hc        1 MOL      0.085157
     97 H41        -0.9830   -4.3560   -0.7830 ha        1 MOL      0.174161
     98 H42        -4.6150   -6.5430    0.2140 ha        1 MOL      0.174161
     99 H43        -1.1780   -4.9870   -3.0140 ha        1 MOL      0.150311
    100 H44        -4.7220   -7.2150   -2.1040 ha        1 MOL      0.150311
    101 H45        -2.5180   -5.8820   -4.6310 ho        1 MOL      0.355634
    102 N10        -0.1320   -3.2490    2.1100 n         1 MOL     -0.491056
    103 C34         1.1190   -2.4970    1.8130 c3        1 MOL     -0.203240
    104 C35         2.1660   -3.4980    1.1700 c         1 MOL      0.653765
    105 O15         1.9210   -4.6660    1.1680 o         1 MOL     -0.561353
    106 C36         1.7750   -1.7980    3.0370 c3        1 MOL      0.205469
    107 C37         2.0830   -2.8940    4.0990 c3        1 MOL     -0.184197
    108 C38         0.8550   -0.6780    3.5470 c3        1 MOL     -0.330039
    109 C39         2.8560   -2.3020    5.3110 c3        1 MOL     -0.094070
    110 H46         0.0070   -4.1240    2.5870 hn        1 MOL      0.290231
    111 H47         0.9300   -1.6760    1.1330 h1        1 MOL      0.146873
    112 H48         2.6960   -1.2680    2.7740 hc        1 MOL     -0.009877
    113 H49         2.7470   -3.6240    3.6390 hc        1 MOL      0.080419
    114 H50         1.1510   -3.2990    4.4870 hc        1 MOL      0.080419
    115 H51        -0.1060   -1.1730    3.6500 hc        1 MOL      0.106702
    116 H52         1.2830   -0.3100    4.4850 hc        1 MOL      0.106702
    117 H53         0.7390    0.1300    2.8180 hc        1 MOL      0.106702
    118 H54         3.8340   -1.9810    4.9560 hc        1 MOL      0.030366
    119 H55         2.3780   -1.4790    5.8350 hc        1 MOL      0.030366
    120 H56         2.9170   -3.1090    6.0420 hc        1 MOL      0.030366
    121 N11         3.2190   -2.9200    0.6450 n         1 MOL     -0.401067
    122 C40         4.2750   -3.5450   -0.1210 c3        1 MOL      0.132694
    123 C41         5.5820   -2.8090    0.1820 c         1 MOL      0.397244
    124 O16         5.5660   -1.7790    0.7990 o         1 MOL     -0.462978
    125 C42         4.1200   -3.4690   -1.5770 c3        1 MOL     -0.024796
    126 O17         4.0760   -2.1340   -2.1120 oh        1 MOL     -0.577732
    127 H57         3.2410   -1.9040    0.6650 hn        1 MOL      0.241997
    128 H58         4.3900   -4.6100    0.0960 h1        1 MOL      0.062053
    129 H59         3.2430   -4.0950   -1.7780 h1        1 MOL      0.060439
    130 H60         4.9270   -3.9880   -2.0910 h1        1 MOL      0.060439
    131 H61         4.1000   -2.3600   -3.0480 ho        1 MOL      0.398485
    132 N12         6.7870   -3.3070   -0.1890 n         1 MOL     -0.334450
    133 C43         8.0830   -2.7400    0.0360 c3        1 MOL      0.065328
    134 C44         8.3190   -1.3570   -0.6460 c         1 MOL      0.549849
    135 O18         8.9470   -0.4660   -0.1150 o         1 MOL     -0.504498
    136 C45         9.0340   -3.7690   -0.5620 c3        1 MOL     -0.355892
    137 H62         6.8190   -4.2020   -0.6400 hn        1 MOL      0.225166
    138 H63         8.2370   -2.5890    1.1080 h1        1 MOL      0.101211
    139 H64         8.9790   -3.8270   -1.6500 hc        1 MOL      0.109839
    140 H65        10.0230   -3.3830   -0.3020 hc        1 MOL      0.109839
    141 H66         8.8430   -4.6920   -0.0260 hc        1 MOL      0.109839
    142 N13         7.7210   -1.2610   -1.8390 n         1 MOL     -0.423483
    143 C46         7.7580    0.0310   -2.4980 c3        1 MOL      0.074377
    144 C47         7.1120    1.2010   -1.6970 c         1 MOL      0.286411
    145 O19         7.5490    2.3630   -1.6890 o         1 MOL     -0.476116
    146 C48         7.1750   -0.0810   -3.9150 c3        1 MOL     -0.251154
    147 H67         7.2770   -2.0840   -2.2260 hn        1 MOL      0.264636
    148 H68         8.8060    0.3080   -2.6080 h1        1 MOL      0.106066
    149 H69         7.3140    0.8430   -4.4830 hc        1 MOL      0.075761
    150 H70         7.6390   -0.7960   -4.5980 hc        1 MOL      0.075761
    151 H71         6.1380   -0.4050   -3.8380 hc        1 MOL      0.075761
    152 N14         6.0260    0.9040   -1.0220 n         1 MOL     -0.101692
    153 C49         5.2740    1.7910   -0.1660 c3        1 MOL     -0.139095
    154 C50         5.9280    1.9160    1.2140 c         1 MOL      0.467423
    155 O20         5.7850    2.9840    1.8000 o         1 MOL     -0.518603
    156 C51         3.7670    1.3170    0.0560 c3        1 MOL      0.015383
    157 C52         2.8210    1.4480   -1.0990 c3        1 MOL      0.127137
    158 C53         1.3990    0.9340   -0.9070 c         1 MOL      0.784046
    159 O21         0.8820    0.3960   -1.9420 o         1 MOL     -0.826819
    160 O22         0.7230    1.0750    0.1550 o         1 MOL     -0.826819
    161 H72         5.6320    0.0220   -1.3040 hn        1 MOL      0.234247
    162 H73         5.2270    2.8090   -0.5570 h1        1 MOL      0.123823
    163 H74         3.3160    1.8590    0.8930 hc        1 MOL      0.016223
    164 H75         3.9020    0.2710    0.3070 hc        1 MOL      0.016223
    165 H76         3.2630    0.9530   -1.9610 hc        1 MOL     -0.074546
    166 H77         2.7640    2.4880   -1.4110 hc        1 MOL     -0.074546
    167 N15         6.8030    1.0230    1.6900 n         1 MOL     -0.090498
    168 C54         7.5520    1.2080    2.8470 c3        1 MOL     -0.262550
    169 H78         6.9000    1.1280    3.7170 h1        1 MOL      0.099234
    170 H79         8.3280    0.4450    2.9040 h1        1 MOL      0.099234
    171 H80         8.0130    2.1950    2.8270 h1        1 MOL      0.099234
    172 H81         6.8480    0.1230    1.2340 hn        1 MOL      0.150182
    173 Ca1        -1.4800   -0.0810   -0.7990 Ca        1 MOL      1.848737
    174 O23        -1.7700   -1.0550   -3.2710 oh        1 MOL     -0.879629
    175 H82        -1.0030   -1.1010   -3.8530 ho        1 MOL      0.409820
    176 H83        -2.3980   -0.5190   -3.7440 ho        1 MOL      0.409820
    177 O24         0.2120   -2.2560   -1.5550 oh        1 MOL     -0.879629
    178 H84         0.8110   -1.6050   -1.9140 ho        1 MOL      0.409820
    179 H85         0.4250   -3.0620   -2.0120 ho        1 MOL      0.409820
@<TRIPOS>BOND
     1    1    2 1   
     2    1    4 1   
     3    1    5 1   
     4    1    6 1   
     5    2    3 2   
     6    2    7 1   
     7    7    8 1   
     8    7   15 1   
     9    8    9 1   
    10    8   11 1   
    11    8   16 1   
    12    9   10 2   
    13    9   19 1   
    14   11   12 1   
    15   11   17 1   
    16   11   18 1   
    17   12   13 1   
    18   12   14 1   
    19   19   20 1   
    20   19   28 1   
    21   20   21 1   
    22   20   23 1   
    23   20   29 1   
    24   21   22 2   
    25   21   41 1   
    26   23   24 1   
    27   23   30 1   
    28   23   31 1   
    29   24   25 1   
    30   24   32 1   
    31   24   33 1   
    32   25   26 1   
    33   25   34 1   
    34   25   35 1   
    35   26   27 1   
    36   26   36 1   
    37   26   37 1   
    38   27   38 1   
    39   27   39 1   
    40   27   40 1   
    41   41   42 1   
    42   41   49 1   
    43   42   43 1   
    44   42   45 1   
    45   42   50 1   
    46   43   44 2   
    47   43   53 1   
    48   45   46 1   
    49   45   51 1   
    50   45   52 1   
    51   46   47 1   
    52   46   48 1   
    53   53   54 1   
    54   53   57 1   
    55   54   55 1   
    56   54   58 1   
    57   54   59 1   
    58   55   56 2   
    59   55   60 1   
    60   60   61 1   
    61   60   68 1   
    62   61   62 1   
    63   61   64 1   
    64   61   69 1   
    65   62   63 2   
    66   62   74 1   
    67   64   65 1   
    68   64   70 1   
    69   64   71 1   
    70   65   66 1   
    71   65   67 2   
    72   66   72 1   
    73   66   73 1   
    74   74   75 1   
    75   74   78 1   
    76   75   76 1   
    77   75   79 1   
    78   75   80 1   
    79   76   77 2   
    80   76   81 1   
    81   81   82 1   
    82   81   93 1   
    83   82   83 1   
    84   82   85 1   
    85   82   94 1   
    86   83   84 2   
    87   83  102 1   
    88   85   86 1   
    89   85   95 1   
    90   85   96 1   
    91   86   87 ar  
    92   86   88 ar  
    93   87   89 ar  
    94   87   97 1   
    95   88   90 ar  
    96   88   98 1   
    97   89   91 ar  
    98   89   99 1   
    99   90   91 ar  
   100   90  100 1   
   101   91   92 1   
   102   92  101 1   
   103  102  103 1   
   104  102  110 1   
   105  103  104 1   
   106  103  106 1   
   107  103  111 1   
   108  104  105 2   
   109  104  121 1   
   110  106  107 1   
   111  106  108 1   
   112  106  112 1   
   113  107  109 1   
   114  107  113 1   
   115  107  114 1   
   116  108  115 1   
   117  108  116 1   
   118  108  117 1   
   119  109  118 1   
   120  109  119 1   
   121  109  120 1   
   122  121  122 1   
   123  121  127 1   
   124  122  123 1   
   125  122  125 1   
   126  122  128 1   
   127  123  124 2   
   128  123  132 1   
   129  125  126 1   
   130  125  129 1   
   131  125  130 1   
   132  126  131 1   
   133  132  133 1   
   134  132  137 1   
   135  133  134 1   
   136  133  136 1   
   137  133  138 1   
   138  134  135 2   
   139  134  142 1   
   140  136  139 1   
   141  136  140 1   
   142  136  141 1   
   143  142  143 1   
   144  142  147 1   
   145  143  144 1   
   146  143  146 1   
   147  143  148 1   
   148  144  145 2   
   149  144  152 1   
   150  146  149 1   
   151  146  150 1   
   152  146  151 1   
   153  152  153 1   
   154  152  161 1   
   155  153  154 1   
   156  153  156 1   
   157  153  162 1   
   158  154  155 2   
   159  154  167 1   
   160  156  157 1   
   161  156  163 1   
   162  156  164 1   
   163  157  158 1   
   164  157  165 1   
   165  157  166 1   
   166  158  159 1   
   167  158  160 1   
   168  167  168 1   
   169  167  172 1   
   170  168  169 1   
   171  168  170 1   
   172  168  171 1   
   173  174  175 1   
   174  174  176 1   
   175  177  178 1   
   176  177  179 1   
@<TRIPOS>SUBSTRUCTURE
     1 MOL         1 TEMP              0 ****  ****    0 ROOT
