@<TRIPOS>MOLECULE
MOL
  176   174     1     0     0
SMALL
resp


@<TRIPOS>ATOM
      1 C1          0.2310    3.9710    6.0790 c3        1 MOL     -0.318913
      2 C2         -0.0440    3.5660    4.6340 c         1 MOL      0.709163
      3 O1          0.7840    3.8210    3.7790 o         1 MOL     -0.566925
      4 H1          0.9190    4.8160    6.0950 hc        1 MOL      0.082705
      5 H2         -0.7050    4.2560    6.5610 hc        1 MOL      0.082705
      6 H3          0.6740    3.1310    6.6140 hc        1 MOL      0.082705
      7 N1         -1.2650    3.0680    4.3180 n         1 MOL     -0.587978
      8 C3         -1.6540    2.6810    3.0110 c3        1 MOL     -0.022242
      9 C4         -2.1550    3.8190    2.0900 c         1 MOL      0.731483
     10 O2         -3.0150    4.6280    2.4340 o         1 MOL     -0.599807
     11 C5         -2.7020    1.5830    3.0880 c3        1 MOL     -0.446109
     12 C6         -3.0710    0.9270    1.7100 c         1 MOL      0.847406
     13 O3         -3.0850    1.5270    0.6050 o         1 MOL     -0.764057
     14 O4         -3.4250   -0.2990    1.5890 o         1 MOL     -0.764057
     15 H4         -1.8980    2.8920    5.0870 hn        1 MOL      0.343257
     16 H5         -0.7420    2.2600    2.5770 h1        1 MOL      0.070336
     17 H6         -3.6080    1.9960    3.5210 hc        1 MOL      0.138459
     18 H7         -2.4280    0.8430    3.8390 hc        1 MOL      0.138459
     19 N2         -1.5140    4.0680    0.9570 n         1 MOL     -0.267722
     20 C7         -1.7390    5.3100    0.1150 c3        1 MOL     -0.233982
     21 C8         -3.0030    5.3230   -0.6790 c         1 MOL      0.570157
     22 O5         -3.4490    6.3840   -1.2190 o         1 MOL     -0.575614
     23 C9         -0.4040    5.6010   -0.7080 c3        1 MOL      0.043723
     24 C10        -0.2400    4.7560   -1.9400 c3        1 MOL     -0.003157
     25 C11         0.8620    5.3800   -2.7860 c3        1 MOL     -0.420457
     26 C12         2.2220    5.6220   -2.0820 c3        1 MOL      0.428662
     27 N3          3.0710    6.3440   -3.0360 n4        1 MOL     -0.572126
     28 H8         -0.8720    3.3310    0.6930 hn        1 MOL      0.147765
     29 H9         -1.8570    6.0950    0.8690 h1        1 MOL      0.151378
     30 H10         0.4030    5.4560    0.0020 hc        1 MOL      0.033367
     31 H11        -0.4500    6.6650   -0.9420 hc        1 MOL      0.033367
     32 H12        -1.0980    4.8030   -2.6160 hc        1 MOL      0.105340
     33 H13        -0.1050    3.7140   -1.6390 hc        1 MOL      0.105340
     34 H14         0.4820    6.3360   -3.1290 hc        1 MOL      0.100589
     35 H15         1.0190    4.6870   -3.6080 hc        1 MOL      0.100589
     36 H16         2.6810    4.7420   -1.6480 hx        1 MOL     -0.006407
     37 H17         2.0660    6.2580   -1.2160 hx        1 MOL     -0.006407
     38 H18         2.7800    7.2940   -3.2020 hn        1 MOL      0.365266
     39 H19         4.0250    6.5180   -2.7380 hn        1 MOL      0.365266
     40 H20         2.9230    5.7830   -3.8620 hn        1 MOL      0.365266
     41 N4         -3.5580    4.1150   -0.9610 n         1 MOL     -0.160947
     42 C13        -4.6500    3.9620   -1.9680 c3        1 MOL     -0.000208
     43 C14        -5.8430    3.1390   -1.3960 c         1 MOL      0.456665
     44 O6         -6.9760    3.2550   -1.9220 o         1 MOL     -0.549432
     45 C15        -4.0880    3.1920   -3.1390 c3        1 MOL     -0.163482
     46 C16        -3.3390    1.9420   -2.6500 c         1 MOL      0.769883
     47 O7         -3.9460    0.9430   -2.2690 o         1 MOL     -0.760435
     48 O8         -2.1000    1.9200   -2.5520 o         1 MOL     -0.760435
     49 H21        -3.1480    3.2890   -0.5470 hn        1 MOL     -0.149884
     50 H22        -5.0270    4.9390   -2.2610 h1        1 MOL      0.114480
     51 H23        -3.3300    3.7340   -3.7030 hc        1 MOL      0.052437
     52 H24        -4.9060    2.8820   -3.7880 hc        1 MOL      0.052437
     53 N5         -5.7310    2.3410   -0.3360 n         1 MOL     -0.310465
     54 C17        -6.8110    1.6280    0.3620 c3        1 MOL     -0.202866
     55 C18        -7.0560    0.2470   -0.1330 c         1 MOL      0.574466
     56 O9         -8.0770   -0.2800    0.2250 o         1 MOL     -0.577916
     57 H25        -4.7990    2.1700    0.0020 hn        1 MOL      0.377340
     58 H26        -7.7190    2.2270    0.3010 h1        1 MOL      0.124589
     59 H27        -6.4660    1.5850    1.3820 h1        1 MOL      0.124589
     60 N6         -6.1900   -0.4570   -0.8990 n         1 MOL     -0.218425
     61 C19        -6.4980   -1.8650   -1.2800 c3        1 MOL     -0.158484
     62 C20        -6.3280   -2.7650    0.0010 c         1 MOL      0.534667
     63 O10        -6.7880   -3.9240   -0.0130 o         1 MOL     -0.567478
     64 C21        -5.6570   -2.2990   -2.4570 c3        1 MOL      0.011918
     65 C22        -4.1670   -2.3770   -2.1930 c         1 MOL      0.431468
     66 N7         -3.3340   -3.0310   -3.0470 n         1 MOL     -0.555185
     67 O11        -3.7030   -2.0270   -1.1030 o         1 MOL     -0.516967
     68 H28        -5.2860   -0.0350   -1.0860 hn        1 MOL      0.156148
     69 H29        -7.5450   -1.9840   -1.5810 h1        1 MOL      0.134652
     70 H30        -5.9610   -1.7660   -3.3570 hc        1 MOL      0.063896
     71 H31        -6.0560   -3.2830   -2.7180 hc        1 MOL      0.063896
     72 H32        -3.5970   -3.4160   -3.9460 hn        1 MOL      0.281924
     73 H33        -2.3390   -3.1740   -2.9100 hn        1 MOL      0.281924
     74 N8         -5.6080   -2.3330    1.0360 n         1 MOL     -0.224031
     75 C23        -5.5030   -3.1970    2.2430 c3        1 MOL     -0.219526
     76 C24        -4.1940   -4.0200    2.2330 c         1 MOL      0.551727
     77 O12        -4.1460   -5.0160    2.9840 o         1 MOL     -0.541067
     78 H34        -4.9600   -1.5590    1.0110 hn        1 MOL      0.230839
     79 H35        -6.3480   -3.8690    2.3500 h1        1 MOL      0.125640
     80 H36        -5.4770   -2.5330    3.1140 h1        1 MOL      0.125640
     81 N9         -3.1340   -3.6190    1.4580 n         1 MOL     -0.333199
     82 C25        -1.7900   -3.9440    1.8280 c3        1 MOL      0.059212
     83 C26        -0.7080   -2.9630    1.4210 c         1 MOL      0.528445
     84 O13        -0.9170   -2.0760    0.6320 o         1 MOL     -0.640760
     85 C27        -1.5010   -5.3470    1.2230 c3        1 MOL     -0.322661
     86 C28        -1.3490   -5.4710   -0.2720 ca        1 MOL      0.114827
     87 C29        -0.1450   -5.0030   -0.9050 ca        1 MOL     -0.154022
     88 C30        -2.3620   -6.0840   -1.0410 ca        1 MOL     -0.154022
     89 C31        -0.0320   -5.1370   -2.2760 ca        1 MOL     -0.283681
     90 C32        -2.2120   -6.1950   -2.4570 ca        1 MOL     -0.283681
     91 C33        -1.0740   -5.6860   -3.0260 ca        1 MOL      0.304633
     92 O14        -1.0510   -5.5020   -4.3340 oh        1 MOL     -0.446734
     93 H37        -3.3060   -2.9100    0.7660 hn        1 MOL      0.275598
     94 H38        -1.6270   -4.0230    2.9010 h1        1 MOL      0.082055
     95 H39        -2.3700   -5.9470    1.4930 hc        1 MOL      0.107539
     96 H40        -0.6020   -5.7700    1.6950 hc        1 MOL      0.107539
     97 H41         0.7030   -4.5410   -0.4310 ha        1 MOL      0.181073
     98 H42        -3.2320   -6.5110   -0.5570 ha        1 MOL      0.181073
     99 H43         0.8570   -4.7050   -2.6990 ha        1 MOL      0.161851
    100 H44        -3.0620   -6.5430   -3.0190 ha        1 MOL      0.161851
    101 H45        -0.2320   -5.0950   -4.6190 ho        1 MOL      0.324745
    102 N10         0.4520   -3.1140    2.0650 n         1 MOL     -0.342812
    103 C34         1.7000   -2.1830    1.8480 c3        1 MOL     -0.811854
    104 C35         2.9480   -3.0970    1.6860 c         1 MOL      0.589452
    105 O15         2.9170   -4.2310    2.1530 o         1 MOL     -0.515952
    106 C36         1.7630   -1.1560    2.9800 c3        1 MOL      0.292484
    107 C37         1.9520   -1.8780    4.3760 c3        1 MOL      0.008065
    108 C38         0.5800   -0.2090    3.0050 c3        1 MOL      0.021250
    109 C39         2.1610   -0.9750    5.5730 c3        1 MOL     -0.187906
    110 H46         0.6120   -3.9730    2.5740 hn        1 MOL      0.314636
    111 H47         1.4460   -1.7910    0.8610 h1        1 MOL      0.337770
    112 H48         2.6200   -0.4990    2.8700 hc        1 MOL     -0.003358
    113 H49         2.7940   -2.5760    4.4020 hc        1 MOL      0.038385
    114 H50         1.0160   -2.4080    4.5140 hc        1 MOL      0.038385
    115 H51         0.8460    0.7470    3.4460 hc        1 MOL      0.012032
    116 H52         0.3770    0.1980    2.0140 hc        1 MOL      0.012032
    117 H53        -0.3210   -0.5850    3.5010 hc        1 MOL      0.012032
    118 H54         1.2490   -0.4720    5.8900 hc        1 MOL      0.041216
    119 H55         2.5530   -1.5800    6.3910 hc        1 MOL      0.041216
    120 H56         2.8660   -0.2230    5.2190 hc        1 MOL      0.041216
    121 N11         3.8650   -2.6610    0.8600 n         1 MOL     -0.158612
    122 C40         5.1320   -3.2430    0.5510 c3        1 MOL     -0.168305
    123 C41         6.1500   -2.1250    0.6170 c         1 MOL      0.536633
    124 O16         5.8640   -0.9200    0.7480 o         1 MOL     -0.437126
    125 C42         5.0520   -3.9870   -0.8560 c3        1 MOL      0.078033
    126 O17         4.8870   -3.0900   -1.9140 oh        1 MOL     -0.516181
    127 H57         3.6540   -1.7640    0.4330 hn        1 MOL      0.182305
    128 H58         5.4080   -3.8560    1.4080 h1        1 MOL      0.113649
    129 H59         4.2610   -4.7380   -0.8890 h1        1 MOL      0.059752
    130 H60         5.9980   -4.5070   -1.0430 h1        1 MOL      0.059752
    131 H61         3.9460   -2.9750   -2.0030 ho        1 MOL      0.357304
    132 N12         7.4090   -2.5320    0.3850 n         1 MOL     -0.425481
    133 C43         8.5790   -1.5680    0.3940 c3        1 MOL      0.093384
    134 C44         8.4290   -0.4040   -0.5640 c         1 MOL      0.475133
    135 O18         8.7760    0.6920   -0.2070 o         1 MOL     -0.515982
    136 C45         9.8920   -2.3640    0.1290 c3        1 MOL     -0.234594
    137 H62         7.6850   -3.4840    0.2230 hn        1 MOL      0.278435
    138 H63         8.6150   -1.1600    1.4040 h1        1 MOL      0.087275
    139 H64        10.0410   -2.6330   -0.9150 hc        1 MOL      0.082788
    140 H65        10.7330   -1.8080    0.5370 hc        1 MOL      0.082788
    141 H66         9.8490   -3.2470    0.7600 hc        1 MOL      0.082788
    142 N13         7.8530   -0.6390   -1.7330 n         1 MOL     -0.320130
    143 C46         7.4960    0.3280   -2.7240 c3        1 MOL      0.041722
    144 C47         6.6180    1.4960   -2.2960 c         1 MOL      0.498681
    145 O19         6.8360    2.6500   -2.6000 o         1 MOL     -0.545980
    146 C48         6.9740   -0.4230   -3.9310 c3        1 MOL     -0.306950
    147 H67         7.6520   -1.6180   -1.9200 hn        1 MOL      0.262525
    148 H68         8.4470    0.7320   -3.0580 h1        1 MOL      0.092262
    149 H69         7.7430   -1.0910   -4.3310 hc        1 MOL      0.090416
    150 H70         6.0910   -0.9660   -3.6020 hc        1 MOL      0.090416
    151 H71         6.5920    0.3470   -4.5960 hc        1 MOL      0.090416
    152 N14         5.6810    1.1980   -1.3820 n         1 MOL     -0.245279
    153 C49         4.6290    2.0440   -0.9270 c3        1 MOL     -0.114628
    154 C50         4.9650    2.6240    0.4450 c         1 MOL      0.458927
    155 O20         4.4790    3.7160    0.8000 o         1 MOL     -0.551349
    156 C51         3.2930    1.2820   -1.0200 c3        1 MOL     -0.191384
    157 C52         2.1760    1.9620   -0.3030 c3        1 MOL     -0.112418
    158 C53         0.8490    1.2210   -0.4050 c         1 MOL      0.861123
    159 O21        -0.2050    1.6610    0.0070 o         1 MOL     -0.777258
    160 O22         0.8110    0.1400   -0.9490 o         1 MOL     -0.777258
    161 H72         5.6540    0.2410   -1.0420 hn        1 MOL      0.165375
    162 H73         4.5730    2.8850   -1.6160 h1        1 MOL      0.124297
    163 H74         3.3780    0.2580   -0.6720 hc        1 MOL      0.068516
    164 H75         3.0250    1.1210   -2.0740 hc        1 MOL      0.068516
    165 H76         2.0210    2.9810   -0.6500 hc        1 MOL      0.071983
    166 H77         2.5150    1.9880    0.7390 hc        1 MOL      0.071983
    167 N15         5.7400    1.8600    1.2660 n         1 MOL     -0.081399
    168 C54         6.1590    2.3150    2.6230 c3        1 MOL     -0.213221
    169 H78         6.8600    3.1440    2.5280 h1        1 MOL      0.100697
    170 H79         5.2830    2.6420    3.1830 h1        1 MOL      0.100697
    171 H80         6.6410    1.4910    3.1500 h1        1 MOL      0.100697
    172 H81         5.8330    0.9200    0.9100 hn        1 MOL      0.092074
    173 Ca1        -1.8640   -0.2010   -0.8160 Ca        1 MOL      1.782419
    174 O23        -0.5080   -1.6070   -2.9120 oh        1 MOL     -0.817220
    175 H82         0.1560   -2.2970   -2.9430 ho        1 MOL      0.403118
    176 H83        -0.6310   -1.3530   -3.8230 ho        1 MOL      0.403118
@<TRIPOS>BOND
     1    1    2 1   
     2    1    4 1   
     3    1    5 1   
     4    1    6 1   
     5    2    3 2   
     6    2    7 1   
     7    7    8 1   
     8    7   15 1   
     9    8    9 1   
    10    8   11 1   
    11    8   16 1   
    12    9   10 2   
    13    9   19 1   
    14   11   12 1   
    15   11   17 1   
    16   11   18 1   
    17   12   13 1   
    18   12   14 1   
    19   19   20 1   
    20   19   28 1   
    21   20   21 1   
    22   20   23 1   
    23   20   29 1   
    24   21   22 2   
    25   21   41 1   
    26   23   24 1   
    27   23   30 1   
    28   23   31 1   
    29   24   25 1   
    30   24   32 1   
    31   24   33 1   
    32   25   26 1   
    33   25   34 1   
    34   25   35 1   
    35   26   27 1   
    36   26   36 1   
    37   26   37 1   
    38   27   38 1   
    39   27   39 1   
    40   27   40 1   
    41   41   42 1   
    42   41   49 1   
    43   42   43 1   
    44   42   45 1   
    45   42   50 1   
    46   43   44 2   
    47   43   53 1   
    48   45   46 1   
    49   45   51 1   
    50   45   52 1   
    51   46   47 1   
    52   46   48 1   
    53   53   54 1   
    54   53   57 1   
    55   54   55 1   
    56   54   58 1   
    57   54   59 1   
    58   55   56 2   
    59   55   60 1   
    60   60   61 1   
    61   60   68 1   
    62   61   62 1   
    63   61   64 1   
    64   61   69 1   
    65   62   63 2   
    66   62   74 1   
    67   64   65 1   
    68   64   70 1   
    69   64   71 1   
    70   65   66 1   
    71   65   67 2   
    72   66   72 1   
    73   66   73 1   
    74   74   75 1   
    75   74   78 1   
    76   75   76 1   
    77   75   79 1   
    78   75   80 1   
    79   76   77 2   
    80   76   81 1   
    81   81   82 1   
    82   81   93 1   
    83   82   83 1   
    84   82   85 1   
    85   82   94 1   
    86   83   84 2   
    87   83  102 1   
    88   85   86 1   
    89   85   95 1   
    90   85   96 1   
    91   86   87 ar  
    92   86   88 ar  
    93   87   89 ar  
    94   87   97 1   
    95   88   90 ar  
    96   88   98 1   
    97   89   91 ar  
    98   89   99 1   
    99   90   91 ar  
   100   90  100 1   
   101   91   92 1   
   102   92  101 1   
   103  102  103 1   
   104  102  110 1   
   105  103  104 1   
   106  103  106 1   
   107  103  111 1   
   108  104  105 2   
   109  104  121 1   
   110  106  107 1   
   111  106  108 1   
   112  106  112 1   
   113  107  109 1   
   114  107  113 1   
   115  107  114 1   
   116  108  115 1   
   117  108  116 1   
   118  108  117 1   
   119  109  118 1   
   120  109  119 1   
   121  109  120 1   
   122  121  122 1   
   123  121  127 1   
   124  122  123 1   
   125  122  125 1   
   126  122  128 1   
   127  123  124 2   
   128  123  132 1   
   129  125  126 1   
   130  125  129 1   
   131  125  130 1   
   132  126  131 1   
   133  132  133 1   
   134  132  137 1   
   135  133  134 1   
   136  133  136 1   
   137  133  138 1   
   138  134  135 2   
   139  134  142 1   
   140  136  139 1   
   141  136  140 1   
   142  136  141 1   
   143  142  143 1   
   144  142  147 1   
   145  143  144 1   
   146  143  146 1   
   147  143  148 1   
   148  144  145 2   
   149  144  152 1   
   150  146  149 1   
   151  146  150 1   
   152  146  151 1   
   153  152  153 1   
   154  152  161 1   
   155  153  154 1   
   156  153  156 1   
   157  153  162 1   
   158  154  155 2   
   159  154  167 1   
   160  156  157 1   
   161  156  163 1   
   162  156  164 1   
   163  157  158 1   
   164  157  165 1   
   165  157  166 1   
   166  158  159 1   
   167  158  160 1   
   168  167  168 1   
   169  167  172 1   
   170  168  169 1   
   171  168  170 1   
   172  168  171 1   
   173  174  175 1   
   174  174  176 1   
@<TRIPOS>SUBSTRUCTURE
     1 MOL         1 TEMP              0 ****  ****    0 ROOT
