@<TRIPOS>MOLECULE
MOL
  189   185     1     0     0
SMALL
resp


@<TRIPOS>ATOM
      1 C1         -0.5990    2.1310    6.0730 c3        1 MOL     -0.356555
      2 C2         -0.7510    1.8300    4.5960 c         1 MOL      0.699481
      3 O1          0.1440    1.9400    3.7490 o         1 MOL     -0.603498
      4 H1         -0.8290    3.1810    6.2550 hc        1 MOL      0.093797
      5 H2         -1.2850    1.5050    6.6440 hc        1 MOL      0.093797
      6 H3          0.4250    1.9250    6.3840 hc        1 MOL      0.093797
      7 N1         -1.9910    1.4720    4.1900 n         1 MOL     -0.649972
      8 C3         -2.5280    1.4320    2.8280 c3        1 MOL      0.018965
      9 C4         -2.8620    2.8570    2.3650 c         1 MOL      0.676883
     10 O2         -3.7200    3.5120    2.9940 o         1 MOL     -0.555077
     11 C5         -3.7780    0.5440    2.8760 c3        1 MOL     -0.087138
     12 C6         -4.5250    0.3330    1.4970 c         1 MOL      0.645156
     13 O3         -3.8670    0.6140    0.4720 o         1 MOL     -0.616945
     14 O4         -5.6680   -0.1400    1.5380 o         1 MOL     -0.616945
     15 H4         -2.6580    1.2890    4.9190 hn        1 MOL      0.354164
     16 H5         -1.8590    0.9990    2.0840 h1        1 MOL     -0.003192
     17 H6         -4.4610    0.9430    3.6280 hc        1 MOL      0.024064
     18 H7         -3.5280   -0.4490    3.2550 hc        1 MOL      0.024064
     19 N2         -2.1140    3.4060    1.3440 n         1 MOL     -0.312440
     20 C7         -2.1170    4.8490    1.0400 c3        1 MOL     -0.089166
     21 C8         -3.1350    5.1010   -0.0530 c         1 MOL      0.425271
     22 O5         -4.1530    5.7680    0.1640 o         1 MOL     -0.507081
     23 C9         -0.6730    5.3270    0.8240 c3        1 MOL     -0.224071
     24 C10        -0.7890    6.7970    0.4860 c3        1 MOL     -0.043708
     25 C11         0.5540    7.2930    0.0440 c3        1 MOL     -0.064305
     26 C12         1.6620    7.1830    1.1280 c3        1 MOL      0.061470
     27 N3          1.4030    8.0290    2.3350 n4        1 MOL     -0.505302
     28 H8         -1.3690    2.8310    0.9920 hn        1 MOL      0.239762
     29 H9         -2.6200    5.4110    1.8190 h1        1 MOL      0.075063
     30 H10        -0.2370    4.7630    0.0060 hc        1 MOL      0.132929
     31 H11        -0.1750    5.1410    1.7790 hc        1 MOL      0.132929
     32 H12        -1.1350    7.3990    1.3250 hc        1 MOL      0.062902
     33 H13        -1.3890    6.9220   -0.4120 hc        1 MOL      0.062902
     34 H14         0.4640    8.3490   -0.1980 hc        1 MOL      0.041769
     35 H15         0.9650    6.7010   -0.7740 hc        1 MOL      0.041769
     36 H16         2.5940    7.4370    0.6190 hx        1 MOL      0.082858
     37 H17         1.7820    6.1400    1.4270 hx        1 MOL      0.082858
     38 H18         1.6130    8.9940    2.1380 hn        1 MOL      0.366339
     39 H19         0.4450    7.9520    2.6280 hn        1 MOL      0.366339
     40 H20         2.0120    7.6950    3.0710 hn        1 MOL      0.366339
     41 N4         -2.9250    4.4440   -1.2140 n         1 MOL     -0.296402
     42 C13        -3.8540    4.3690   -2.3640 c3        1 MOL     -0.024333
     43 C14        -5.2650    3.8660   -2.0290 c         1 MOL      0.393956
     44 O6         -6.2950    4.3100   -2.6160 o         1 MOL     -0.551579
     45 C15        -3.3300    3.5270   -3.5780 c3        1 MOL     -0.250911
     46 C16        -2.9120    2.1070   -3.2420 c         1 MOL      0.780175
     47 O7         -2.8030    1.7390   -2.0420 o         1 MOL     -0.672306
     48 O8         -2.6500    1.4810   -4.2170 o         1 MOL     -0.672306
     49 H21        -2.1970    3.7330   -1.2740 hn        1 MOL      0.223562
     50 H22        -4.0630    5.3860   -2.6900 h1        1 MOL      0.064208
     51 H23        -2.4020    4.0040   -3.9090 hc        1 MOL      0.073332
     52 H24        -4.0770    3.5920   -4.3700 hc        1 MOL      0.073332
     53 N5         -5.3020    2.8540   -1.2190 n         1 MOL      0.085517
     54 C17        -6.5810    2.2980   -0.6980 c3        1 MOL     -0.087952
     55 C18        -7.0310    1.0720   -1.4930 c         1 MOL      0.567633
     56 O9         -8.0340    1.0830   -2.2450 o         1 MOL     -0.560513
     57 H25        -4.4340    2.4540   -0.8850 hn        1 MOL      0.042075
     58 H26        -7.4430    2.9650   -0.6800 h1        1 MOL      0.048945
     59 H27        -6.3650    1.9960    0.3260 h1        1 MOL      0.048945
     60 N6         -6.1850    0.0550   -1.4910 n         1 MOL     -0.388442
     61 C19        -6.4440   -1.1410   -2.2660 c3        1 MOL      0.215704
     62 C20        -6.8400   -2.4120   -1.3570 c         1 MOL      0.383054
     63 O10        -7.1590   -3.4570   -1.9150 o         1 MOL     -0.533647
     64 C21        -5.3200   -1.4050   -3.2770 c3        1 MOL     -0.303243
     65 C22        -4.0100   -1.7470   -2.6220 c         1 MOL      0.749833
     66 O11        -2.9620   -1.6450   -3.2420 o         1 MOL     -0.725440
     67 O12        -3.9930   -1.7860   -1.3970 o         1 MOL     -0.725440
     68 H28        -5.3440    0.0920   -0.9250 hn        1 MOL      0.099344
     69 H29        -7.3340   -1.1740   -2.8930 h1        1 MOL      0.056412
     70 H30        -5.1520   -0.5010   -3.8500 hc        1 MOL      0.092642
     71 H31        -5.6700   -2.1950   -3.9490 hc        1 MOL      0.092642
     72 N7         -6.6700   -2.3850   -0.0490 n         1 MOL     -0.304611
     73 C23        -6.7670   -3.6700    0.7530 c3        1 MOL     -0.073580
     74 C24        -5.5350   -4.5660    0.9100 c         1 MOL      0.458394
     75 O13        -5.6220   -5.7310    1.3800 o         1 MOL     -0.563993
     76 H32        -6.3880   -1.5750    0.4830 hn        1 MOL      0.269974
     77 H33        -7.5240   -4.2820    0.2710 h1        1 MOL      0.085415
     78 H34        -7.1300   -3.4220    1.7520 h1        1 MOL      0.085415
     79 N8         -4.3330   -4.1320    0.4730 n         1 MOL     -0.210898
     80 C25        -2.9850   -4.6980    0.7600 c3        1 MOL     -0.061510
     81 C26        -1.9190   -3.6790    1.0050 c         1 MOL      0.649086
     82 O14        -2.0810   -2.4460    1.0030 o         1 MOL     -0.694968
     83 C27        -2.6460   -5.7040   -0.3720 c3        1 MOL      0.367974
     84 C28        -3.3110   -7.0500   -0.4890 c3        1 MOL     -0.411322
     85 O15        -2.5540   -5.0900   -1.6200 oh        1 MOL     -0.584186
     86 H35        -4.3490   -3.2730   -0.0620 hn        1 MOL      0.201598
     87 H36        -2.9670   -5.2780    1.6730 h1        1 MOL      0.071995
     88 H37        -1.6170   -5.9930   -0.1660 h1        1 MOL      0.026719
     89 H38        -3.4900   -4.9610   -1.8070 ho        1 MOL      0.383416
     90 H39        -3.4110   -7.4650    0.5090 hc        1 MOL      0.108191
     91 H40        -4.3400   -7.0240   -0.8580 hc        1 MOL      0.108191
     92 H41        -2.7430   -7.6570   -1.1940 hc        1 MOL      0.108191
     93 N9         -0.7370   -4.2430    1.3390 n         1 MOL     -0.492328
     94 C29         0.4650   -3.4780    1.6450 c3        1 MOL      0.136405
     95 C30         1.6480   -3.8700    0.6700 c         1 MOL      0.510013
     96 O16         1.8730   -5.0610    0.4210 o         1 MOL     -0.579272
     97 C31         0.8990   -3.6310    3.1150 c3        1 MOL      0.072650
     98 C32        -0.2570   -3.1840    4.0800 c3        1 MOL     -0.008107
     99 C33         2.2310   -3.0370    3.4990 c3        1 MOL     -0.246066
    100 C34        -0.6550   -1.7470    3.9480 c3        1 MOL     -0.055533
    101 H42        -0.7680   -5.2520    1.4020 hn        1 MOL      0.246614
    102 H43         0.2500   -2.4370    1.3960 h1        1 MOL      0.088160
    103 H44         0.9690   -4.7130    3.2470 hc        1 MOL      0.006886
    104 H45         0.0490   -3.4130    5.0970 hc        1 MOL     -0.005900
    105 H46        -1.2110   -3.7210    4.0000 hc        1 MOL     -0.005900
    106 H47         2.0850   -1.9890    3.2260 hc        1 MOL      0.052051
    107 H48         2.3080   -3.1460    4.5770 hc        1 MOL      0.052051
    108 H49         3.0590   -3.5360    3.0100 hc        1 MOL      0.052051
    109 H50        -1.5170   -1.4370    4.5300 hc        1 MOL      0.043150
    110 H51         0.2020   -1.1430    4.2750 hc        1 MOL      0.043150
    111 H52        -1.0630   -1.5440    2.9610 hc        1 MOL      0.043150
    112 N10         2.4090   -2.9040    0.1890 n         1 MOL     -0.112811
    113 C35         3.5890   -3.0300   -0.7090 c3        1 MOL     -0.101831
    114 C36         4.9040   -2.6600   -0.0080 c         1 MOL      0.341461
    115 O17         4.9050   -1.9110    0.9700 o         1 MOL     -0.236754
    116 C37         3.4700   -2.1660   -1.9710 c3        1 MOL      0.274526
    117 C38         2.3080   -2.7530   -2.8820 c3        1 MOL     -0.580642
    118 O18         3.0550   -0.8400   -1.6130 oh        1 MOL     -0.628829
    119 H53         2.1490   -1.9570    0.4290 hn        1 MOL      0.130676
    120 H54         3.7030   -4.0700   -1.0240 h1        1 MOL      0.089259
    121 H55         4.4340   -2.0560   -2.4700 h1        1 MOL      0.033735
    122 H56         2.1870   -0.8320   -1.2000 ho        1 MOL      0.459784
    123 H57         2.3610   -2.3040   -3.8830 hc        1 MOL      0.177202
    124 H58         2.3260   -3.8360   -2.9010 hc        1 MOL      0.177202
    125 H59         1.4030   -2.5020   -2.3230 hc        1 MOL      0.177202
    126 N11         6.0620   -2.8370   -0.6520 n         1 MOL     -0.374787
    127 C39         7.3680   -2.2630   -0.2860 c3        1 MOL     -0.011607
    128 C40         7.2360   -0.7810   -0.0340 c         1 MOL      0.329654
    129 O19         7.7380   -0.3920    1.0270 o         1 MOL     -0.485218
    130 C41         8.3540   -2.4650   -1.4020 c3        1 MOL      0.203286
    131 C42         8.7470   -3.9060   -1.4360 c3        1 MOL     -0.415259
    132 O20         7.8200   -2.0880   -2.6530 oh        1 MOL     -0.674046
    133 H60         6.0820   -3.3040   -1.5480 hn        1 MOL      0.273213
    134 H61         7.7460   -2.7470    0.6200 h1        1 MOL      0.140982
    135 H62         9.1560   -1.8040   -1.0780 h1        1 MOL      0.055249
    136 H63         8.3820   -2.4840   -3.3280 ho        1 MOL      0.442012
    137 H64         9.1220   -4.2470   -0.4750 hc        1 MOL      0.123758
    138 H65         7.8930   -4.5060   -1.7500 hc        1 MOL      0.123758
    139 H66         9.5240   -3.9850   -2.2040 hc        1 MOL      0.123758
    140 N12         6.6310   -0.0280   -0.9440 n         1 MOL     -0.089746
    141 C43         6.4560    1.3990   -0.7240 c3        1 MOL     -0.118512
    142 C44         5.7340    1.8720    0.5370 c         1 MOL      0.409420
    143 O21         5.9540    2.9400    1.0910 o         1 MOL     -0.541031
    144 C45         5.7020    2.0480   -1.9340 c3        1 MOL      0.023096
    145 C46         6.3480    1.6860   -3.3370 c3        1 MOL     -0.165825
    146 C47         7.8460    2.0810   -3.5190 c3        1 MOL     -0.029221
    147 C48         8.0890    2.2320   -5.0430 c3        1 MOL      0.109174
    148 N13         9.5090    2.6130   -5.2580 n4        1 MOL     -0.231252
    149 H67         6.2340   -0.3840   -1.8000 hn        1 MOL      0.285215
    150 H68         7.3960    1.9590   -0.7650 h1        1 MOL      0.070275
    151 H69         5.5090    3.1090   -1.7580 hc        1 MOL      0.042759
    152 H70         4.6650    1.7160   -1.9360 hc        1 MOL      0.042759
    153 H71         5.7280    2.2160   -4.0610 hc        1 MOL      0.058022
    154 H72         6.0970    0.6360   -3.4850 hc        1 MOL      0.058022
    155 H73         8.4460    1.2540   -3.1480 hc        1 MOL      0.031065
    156 H74         8.1340    2.9770   -2.9600 hc        1 MOL      0.031065
    157 H75         7.4990    2.9490   -5.5970 hx        1 MOL      0.060353
    158 H76         7.9550    1.2520   -5.5090 hx        1 MOL      0.060353
    159 H77        10.0920    2.0680   -4.6370 hn        1 MOL      0.263076
    160 H78         9.8200    2.4390   -6.1980 hn        1 MOL      0.263076
    161 H79         9.6760    3.5880   -5.0500 hn        1 MOL      0.263076
    162 N14         4.8010    1.0480    1.0300 n         1 MOL      0.113246
    163 C49         4.0850    1.2260    2.2020 c3        1 MOL     -0.244023
    164 C50         4.7770    0.5930    3.4560 c         1 MOL      0.483727
    165 O22         4.7200    1.1460    4.5800 o         1 MOL     -0.577967
    166 C51         2.7060    0.5920    1.9570 c3        1 MOL      0.253326
    167 C52         1.9600    1.3820    0.8770 c3        1 MOL     -0.137789
    168 C53         0.8020    0.6240    0.3060 c         1 MOL      1.091106
    169 O23         0.8770   -0.5550   -0.0030 o         1 MOL     -0.909149
    170 O24        -0.3190    1.1220    0.2460 o         1 MOL     -0.909149
    171 H80         4.5880    0.1860    0.5360 hn        1 MOL     -0.100276
    172 H81         3.9000    2.2850    2.3540 h1        1 MOL      0.114241
    173 H82         2.0760    0.5760    2.8470 hc        1 MOL     -0.017673
    174 H83         2.7100   -0.4590    1.6680 hc        1 MOL     -0.017673
    175 H84         2.5270    1.4270   -0.0500 hc        1 MOL     -0.039290
    176 H85         1.6740    2.3550    1.2740 hc        1 MOL     -0.039290
    177 N15         5.5050   -0.4390    3.2180 n         1 MOL     -0.025747
    178 C54         6.1790   -1.2240    4.2180 c3        1 MOL     -0.393688
    179 H86         6.8440   -1.9380    3.7310 h1        1 MOL      0.140037
    180 H87         6.7620   -0.5670    4.8640 h1        1 MOL      0.140037
    181 H88         5.4440   -1.7630    4.8150 h1        1 MOL      0.140037
    182 H89         5.4240   -0.7740    2.2690 hn        1 MOL      0.017063
    183 Ca1        -1.9780   -0.4320   -0.8350 Ca        1 MOL      1.845350
    184 O25        -0.5510    0.1500   -3.0620 oh        1 MOL     -0.940566
    185 H90        -1.2610    0.3600   -3.6700 ho        1 MOL      0.425685
    186 H91         0.2410    0.2780   -3.5720 ho        1 MOL      0.425685
    187 O26        -0.8840   -3.0290   -2.1090 oh        1 MOL     -0.940566
    188 H92        -1.2840   -2.8330   -2.9570 ho        1 MOL      0.425685
    189 H93        -1.2640   -3.8690   -1.8640 ho        1 MOL      0.425685
@<TRIPOS>BOND
     1    1    2 1   
     2    1    4 1   
     3    1    5 1   
     4    1    6 1   
     5    2    3 2   
     6    2    7 1   
     7    7    8 1   
     8    7   15 1   
     9    8    9 1   
    10    8   11 1   
    11    8   16 1   
    12    9   10 2   
    13    9   19 1   
    14   11   12 1   
    15   11   17 1   
    16   11   18 1   
    17   12   13 1   
    18   12   14 1   
    19   19   20 1   
    20   19   28 1   
    21   20   21 1   
    22   20   23 1   
    23   20   29 1   
    24   21   22 2   
    25   21   41 1   
    26   23   24 1   
    27   23   30 1   
    28   23   31 1   
    29   24   25 1   
    30   24   32 1   
    31   24   33 1   
    32   25   26 1   
    33   25   34 1   
    34   25   35 1   
    35   26   27 1   
    36   26   36 1   
    37   26   37 1   
    38   27   38 1   
    39   27   39 1   
    40   27   40 1   
    41   41   42 1   
    42   41   49 1   
    43   42   43 1   
    44   42   45 1   
    45   42   50 1   
    46   43   44 2   
    47   43   53 1   
    48   45   46 1   
    49   45   51 1   
    50   45   52 1   
    51   46   47 1   
    52   46   48 1   
    53   53   54 1   
    54   53   57 1   
    55   54   55 1   
    56   54   58 1   
    57   54   59 1   
    58   55   56 2   
    59   55   60 1   
    60   60   61 1   
    61   60   68 1   
    62   61   62 1   
    63   61   64 1   
    64   61   69 1   
    65   62   63 2   
    66   62   72 1   
    67   64   65 1   
    68   64   70 1   
    69   64   71 1   
    70   65   66 1   
    71   65   67 1   
    72   72   73 1   
    73   72   76 1   
    74   73   74 1   
    75   73   77 1   
    76   73   78 1   
    77   74   75 2   
    78   74   79 1   
    79   79   80 1   
    80   79   86 1   
    81   80   81 1   
    82   80   83 1   
    83   80   87 1   
    84   81   82 2   
    85   81   93 1   
    86   83   84 1   
    87   83   85 1   
    88   83   88 1   
    89   84   90 1   
    90   84   91 1   
    91   84   92 1   
    92   85   89 1   
    93   93   94 1   
    94   93  101 1   
    95   94   95 1   
    96   94   97 1   
    97   94  102 1   
    98   95   96 2   
    99   95  112 1   
   100   97   98 1   
   101   97   99 1   
   102   97  103 1   
   103   98  100 1   
   104   98  104 1   
   105   98  105 1   
   106   99  106 1   
   107   99  107 1   
   108   99  108 1   
   109  100  109 1   
   110  100  110 1   
   111  100  111 1   
   112  112  113 1   
   113  112  119 1   
   114  113  114 1   
   115  113  116 1   
   116  113  120 1   
   117  114  115 2   
   118  114  126 1   
   119  116  117 1   
   120  116  118 1   
   121  116  121 1   
   122  117  123 1   
   123  117  124 1   
   124  117  125 1   
   125  118  122 1   
   126  126  127 1   
   127  126  133 1   
   128  127  128 1   
   129  127  130 1   
   130  127  134 1   
   131  128  129 2   
   132  128  140 1   
   133  130  131 1   
   134  130  132 1   
   135  130  135 1   
   136  131  137 1   
   137  131  138 1   
   138  131  139 1   
   139  132  136 1   
   140  140  141 1   
   141  140  149 1   
   142  141  142 1   
   143  141  144 1   
   144  141  150 1   
   145  142  143 2   
   146  142  162 1   
   147  144  145 1   
   148  144  151 1   
   149  144  152 1   
   150  145  146 1   
   151  145  153 1   
   152  145  154 1   
   153  146  147 1   
   154  146  155 1   
   155  146  156 1   
   156  147  148 1   
   157  147  157 1   
   158  147  158 1   
   159  148  159 1   
   160  148  160 1   
   161  148  161 1   
   162  162  163 1   
   163  162  171 1   
   164  163  164 1   
   165  163  166 1   
   166  163  172 1   
   167  164  165 2   
   168  164  177 1   
   169  166  167 1   
   170  166  173 1   
   171  166  174 1   
   172  167  168 1   
   173  167  175 1   
   174  167  176 1   
   175  168  169 1   
   176  168  170 1   
   177  177  178 1   
   178  177  182 1   
   179  178  179 1   
   180  178  180 1   
   181  178  181 1   
   182  184  185 1   
   183  184  186 1   
   184  187  188 1   
   185  187  189 1   
@<TRIPOS>SUBSTRUCTURE
     1 MOL         1 TEMP              0 ****  ****    0 ROOT
