@<TRIPOS>MOLECULE
MOL
  189   185     1     0     0
SMALL
resp


@<TRIPOS>ATOM
      1 C1         -0.2240    2.8530    5.6540 c3        1 MOL     -0.366478
      2 C2         -0.4700    2.2460    4.1940 c         1 MOL      0.526870
      3 O1          0.3580    2.4910    3.2440 o         1 MOL     -0.589372
      4 H1          0.7020    2.4510    6.0630 hc        1 MOL      0.100069
      5 H2         -0.1500    3.9390    5.5890 hc        1 MOL      0.100069
      6 H3         -1.0560    2.5830    6.3050 hc        1 MOL      0.100069
      7 N1         -1.5580    1.5000    4.0280 n         1 MOL     -0.338285
      8 C3         -2.2140    1.2530    2.7270 c3        1 MOL     -0.028844
      9 C4         -2.8440    2.5410    2.0230 c         1 MOL      0.481712
     10 O2         -3.9260    3.0540    2.3030 o         1 MOL     -0.547220
     11 C5         -3.3150    0.1610    2.8520 c3        1 MOL     -0.221860
     12 C6         -4.0750   -0.0510    1.5150 c         1 MOL      0.797140
     13 O3         -5.0630   -0.8310    1.5360 o         1 MOL     -0.702885
     14 O4         -3.5720    0.3960    0.4440 o         1 MOL     -0.702885
     15 H4         -2.1180    1.2980    4.8470 hn        1 MOL      0.285841
     16 H5         -1.4400    0.8550    2.0790 h1        1 MOL      0.043921
     17 H6         -3.9980    0.3490    3.6910 hc        1 MOL      0.064605
     18 H7         -2.9260   -0.8130    3.1360 hc        1 MOL      0.064605
     19 N2         -1.9810    3.2030    1.3000 n         1 MOL     -0.328160
     20 C7         -2.2020    4.5910    0.8400 c3        1 MOL     -0.105838
     21 C8         -3.2070    4.7560   -0.2770 c         1 MOL      0.410581
     22 O5         -3.8480    5.7990   -0.4050 o         1 MOL     -0.551978
     23 C9         -0.8280    5.2320    0.5390 c3        1 MOL     -0.034194
     24 C10        -0.8780    6.7350    0.2280 c3        1 MOL     -0.354339
     25 C11        -1.5640    7.7270    1.1020 c3        1 MOL      0.096662
     26 C12        -1.1310    7.5330    2.5330 c3        1 MOL      0.076484
     27 N3         -1.9430    8.4180    3.4610 n4        1 MOL     -0.487068
     28 H8         -1.2130    2.6710    0.8980 hn        1 MOL      0.292406
     29 H9         -2.6170    5.0360    1.7450 h1        1 MOL      0.147076
     30 H10        -0.4190    4.6220   -0.2590 hc        1 MOL      0.069934
     31 H11        -0.0720    5.1280    1.3120 hc        1 MOL      0.069934
     32 H12        -1.4180    6.7300   -0.7120 hc        1 MOL      0.108178
     33 H13         0.1010    7.2050    0.2020 hc        1 MOL      0.108178
     34 H14        -2.6490    7.6470    1.1190 hc        1 MOL      0.013508
     35 H15        -1.2310    8.7090    0.7750 hc        1 MOL      0.013508
     36 H16        -0.0650    7.6800    2.6650 hx        1 MOL      0.074843
     37 H17        -1.4690    6.5130    2.7100 hx        1 MOL      0.074843
     38 H18        -1.6950    8.1780    4.4120 hn        1 MOL      0.356315
     39 H19        -1.8540    9.4110    3.3090 hn        1 MOL      0.356315
     40 H20        -2.9220    8.2260    3.3140 hn        1 MOL      0.356315
     41 N4         -3.4330    3.7470   -1.0790 n         1 MOL     -0.082770
     42 C13        -4.4160    3.7690   -2.1450 c3        1 MOL     -0.129512
     43 C14        -5.6410    2.9500   -1.8540 c         1 MOL      0.456171
     44 O6         -6.5880    3.1150   -2.6180 o         1 MOL     -0.510697
     45 C15        -3.8730    3.2080   -3.4850 c3        1 MOL     -0.058778
     46 C16        -3.1430    1.8450   -3.5280 c         1 MOL      0.800914
     47 O7         -2.7810    1.3000   -2.4620 o         1 MOL     -0.699715
     48 O8         -2.7360    1.4920   -4.6420 o         1 MOL     -0.699715
     49 H21        -2.8220    2.9470   -1.1320 hn        1 MOL      0.140046
     50 H22        -4.7180    4.8040   -2.3390 h1        1 MOL      0.105751
     51 H23        -3.0510    3.7910   -3.9090 hc        1 MOL      0.010758
     52 H24        -4.6410    3.2340   -4.2640 hc        1 MOL      0.010758
     53 N5         -5.7230    2.1420   -0.7610 n         1 MOL     -0.114784
     54 C17        -6.9290    1.3480   -0.4970 c3        1 MOL     -0.357747
     55 C18        -7.0480    0.0810   -1.3250 c         1 MOL      0.757077
     56 O9         -7.6720    0.1190   -2.4020 o         1 MOL     -0.566928
     57 H25        -4.9900    1.9830   -0.0780 hn        1 MOL      0.165493
     58 H26        -7.7900    1.9980   -0.4920 h1        1 MOL      0.119891
     59 H27        -6.8510    1.0870    0.5570 h1        1 MOL      0.119891
     60 N6         -6.5020   -1.0250   -0.8450 n         1 MOL     -0.571914
     61 C19        -6.6530   -2.3260   -1.5310 c3        1 MOL      0.031473
     62 C20        -6.4190   -3.4390   -0.5210 c         1 MOL      0.530849
     63 O10        -6.5970   -4.6350   -0.9010 o         1 MOL     -0.582217
     64 C21        -5.7140   -2.4440   -2.7640 c3        1 MOL     -0.245689
     65 C22        -4.2510   -2.2000   -2.4270 c         1 MOL      0.857921
     66 O11        -3.4550   -1.7720   -3.2250 o         1 MOL     -0.755373
     67 O12        -3.9410   -2.3380   -1.2600 o         1 MOL     -0.755373
     68 H28        -5.7090   -0.9010   -0.2290 hn        1 MOL      0.209214
     69 H29        -7.6970   -2.4290   -1.8270 h1        1 MOL      0.101706
     70 H30        -5.9030   -1.6660   -3.5110 hc        1 MOL      0.078185
     71 H31        -5.7550   -3.3940   -3.2920 hc        1 MOL      0.078185
     72 N7         -6.0800   -3.2070    0.7490 n         1 MOL     -0.392522
     73 C23        -5.8560   -4.1740    1.7950 c3        1 MOL     -0.010057
     74 C24        -4.4590   -4.6860    1.9410 c         1 MOL      0.439031
     75 O13        -4.2120   -5.6510    2.7490 o         1 MOL     -0.566872
     76 H32        -5.8910   -2.2430    1.0040 hn        1 MOL      0.331268
     77 H33        -6.4490   -5.0800    1.6620 h1        1 MOL      0.078148
     78 H34        -6.1410   -3.8090    2.7910 h1        1 MOL      0.078148
     79 N8         -3.5150   -4.2060    1.0860 n         1 MOL     -0.113874
     80 C25        -2.1500   -4.6920    0.9130 c3        1 MOL     -0.180782
     81 C26        -1.0890   -3.5750    0.9590 c         1 MOL      0.582669
     82 O14        -1.3560   -2.3670    0.7020 o         1 MOL     -0.621819
     83 C27        -2.0610   -5.6370   -0.3380 c3        1 MOL      0.467055
     84 C28        -2.7230   -7.0140   -0.0640 c3        1 MOL     -0.395042
     85 O15        -2.7570   -5.0200   -1.4580 oh        1 MOL     -0.586862
     86 H35        -3.7630   -3.4280    0.4910 hn        1 MOL      0.139600
     87 H36        -1.9690   -5.3050    1.7930 h1        1 MOL      0.092923
     88 H37        -1.0290   -5.8100   -0.6380 h1        1 MOL     -0.005949
     89 H38        -3.4320   -4.4980   -1.0130 ho        1 MOL      0.366633
     90 H39        -2.1940   -7.3500    0.8370 hc        1 MOL      0.098006
     91 H40        -3.7930   -6.8940    0.1150 hc        1 MOL      0.098006
     92 H41        -2.4210   -7.6250   -0.9190 hc        1 MOL      0.098006
     93 N9          0.1250   -3.9780    1.3200 n         1 MOL     -0.565088
     94 C29         1.2120   -3.0740    1.6010 c3        1 MOL      0.017899
     95 C30         2.4020   -3.5950    0.7960 c         1 MOL      0.534526
     96 O16         2.9870   -4.6480    1.0800 o         1 MOL     -0.521757
     97 C31         1.4990   -2.9750    3.1200 c3        1 MOL      0.014526
     98 C32         0.5120   -1.9630    3.7890 c3        1 MOL     -0.059042
     99 C33         2.9250   -2.5590    3.4230 c3        1 MOL     -0.264888
    100 C34         0.6860   -1.6010    5.3070 c3        1 MOL     -0.196929
    101 H42         0.3260   -4.9400    1.5430 hn        1 MOL      0.319595
    102 H43         0.9150   -2.0670    1.2930 h1        1 MOL      0.185276
    103 H44         1.3500   -3.9790    3.5340 hc        1 MOL      0.039632
    104 H45        -0.5190   -2.2610    3.6220 hc        1 MOL      0.055751
    105 H46         0.5440   -1.0350    3.2090 hc        1 MOL      0.055751
    106 H47         3.7040   -3.0380    2.8380 hc        1 MOL      0.061047
    107 H48         3.0380   -1.4720    3.4270 hc        1 MOL      0.061047
    108 H49         3.1740   -2.8230    4.4560 hc        1 MOL      0.061047
    109 H50        -0.2350   -1.2440    5.7590 hc        1 MOL      0.055552
    110 H51         0.9490   -2.5040    5.8590 hc        1 MOL      0.055552
    111 H52         1.5200   -0.9510    5.5860 hc        1 MOL      0.055552
    112 N10         2.6340   -2.7870   -0.2810 n         1 MOL     -0.401369
    113 C35         3.8500   -3.0850   -1.1410 c3        1 MOL     -0.105488
    114 C36         5.1440   -2.8430   -0.3330 c         1 MOL      0.267455
    115 O17         5.0700   -2.2950    0.7270 o         1 MOL     -0.226270
    116 C37         3.8640   -2.2580   -2.4000 c3        1 MOL      0.264033
    117 C38         2.6310   -2.6470   -3.2690 c3        1 MOL     -0.599795
    118 O18         3.6070   -0.8790   -2.0610 oh        1 MOL     -0.641758
    119 H53         2.0620   -1.9540   -0.3560 hn        1 MOL      0.308472
    120 H54         3.8140   -4.1070   -1.5290 h1        1 MOL      0.109980
    121 H55         4.7200   -2.3810   -3.0550 h1        1 MOL      0.072268
    122 H56         2.6510   -0.7850   -2.1270 ho        1 MOL      0.433168
    123 H57         2.7740   -3.6710   -3.6160 hc        1 MOL      0.171795
    124 H58         1.6930   -2.4560   -2.7490 hc        1 MOL      0.171795
    125 H59         2.4800   -1.9480   -4.0930 hc        1 MOL      0.171795
    126 N11         6.2400   -2.9750   -0.9660 n         1 MOL     -0.223090
    127 C39         7.5640   -2.3490   -0.5770 c3        1 MOL     -0.085067
    128 C40         7.4070   -0.8370   -0.2330 c         1 MOL      0.318175
    129 O19         8.0130   -0.2900    0.7010 o         1 MOL     -0.468378
    130 C41         8.7160   -2.3570   -1.6880 c3        1 MOL      0.271184
    131 C42         9.1880   -3.8270   -1.7210 c3        1 MOL     -0.224647
    132 O20         8.1820   -1.8880   -2.8740 oh        1 MOL     -0.632057
    133 H60         6.1230   -3.4440   -1.8600 hn        1 MOL      0.254404
    134 H61         8.0630   -2.8090    0.2840 h1        1 MOL      0.114345
    135 H62         9.6170   -1.8010   -1.3980 h1        1 MOL      0.047907
    136 H63         8.9520   -1.7420   -3.4280 ho        1 MOL      0.415858
    137 H64         8.3270   -4.5070   -1.7040 hc        1 MOL      0.063568
    138 H65         9.8320   -3.9490   -2.5940 hc        1 MOL      0.063568
    139 H66         9.8870   -4.1280   -0.9410 hc        1 MOL      0.063568
    140 N12         6.6760   -0.0430   -1.0840 n         1 MOL     -0.127228
    141 C43         6.7310    1.4250   -1.0420 c3        1 MOL     -0.352464
    142 C44         5.9030    1.9090    0.1430 c         1 MOL      0.462528
    143 O21         6.0890    2.9800    0.7360 o         1 MOL     -0.560122
    144 C45         6.1050    1.9720   -2.3840 c3        1 MOL     -0.065813
    145 C46         6.0260    3.5540   -2.5190 c3        1 MOL      0.120025
    146 C47         5.6750    4.0160   -3.9070 c3        1 MOL     -0.039967
    147 C48         5.6050    5.4670   -4.0500 c3        1 MOL      0.039389
    148 N13         4.6370    6.0550   -3.1820 n4        1 MOL     -0.495124
    149 H67         6.1930   -0.4690   -1.8570 hn        1 MOL      0.229597
    150 H68         7.7880    1.6950   -0.9800 h1        1 MOL      0.202442
    151 H69         5.1550    1.5540   -2.6980 hc        1 MOL      0.056157
    152 H70         6.7020    1.6040   -3.2120 hc        1 MOL      0.056157
    153 H71         7.0020    3.9990   -2.3580 hc        1 MOL     -0.012891
    154 H72         5.2790    3.8940   -1.7990 hc        1 MOL     -0.012891
    155 H73         4.7160    3.5350   -4.0790 hc        1 MOL      0.036122
    156 H74         6.4080    3.5770   -4.5880 hc        1 MOL      0.036122
    157 H75         5.4800    5.6610   -5.1170 hx        1 MOL      0.093784
    158 H76         6.5540    5.9900   -3.9470 hx        1 MOL      0.093784
    159 H77         3.7240    5.6310   -3.3140 hn        1 MOL      0.368388
    160 H78         4.8860    6.0280   -2.2090 hn        1 MOL      0.368388
    161 H79         4.5460    7.0340   -3.4270 hn        1 MOL      0.368388
    162 N14         4.8830    1.1250    0.5280 n         1 MOL     -0.044790
    163 C49         4.0190    1.3830    1.6820 c3        1 MOL     -0.243317
    164 C50         4.8020    0.8970    2.9560 c         1 MOL      0.521079
    165 O22         4.7650    1.3960    4.0770 o         1 MOL     -0.555455
    166 C51         2.7130    0.6500    1.3020 c3        1 MOL      0.084635
    167 C52         2.0280    1.2780    0.0280 c3        1 MOL     -0.123807
    168 C53         0.8090    0.4940   -0.3980 c         1 MOL      0.618473
    169 O23         0.9090   -0.6630   -0.8560 o         1 MOL     -0.670555
    170 O24        -0.3060    1.0540   -0.3770 o         1 MOL     -0.670555
    171 H80         4.7480    0.2910   -0.0220 hn        1 MOL      0.167076
    172 H81         3.8980    2.4630    1.8020 h1        1 MOL      0.114728
    173 H82         1.9890    0.7630    2.1100 hc        1 MOL      0.065045
    174 H83         2.9100   -0.4120    1.1580 hc        1 MOL      0.065045
    175 H84         2.7820    1.3590   -0.7610 hc        1 MOL      0.002590
    176 H85         1.7330    2.3030    0.2760 hc        1 MOL      0.002590
    177 N15         5.5160   -0.2150    2.7580 n         1 MOL      0.002428
    178 C54         6.2950   -0.7380    3.8830 c3        1 MOL     -0.407924
    179 H86         6.6530   -1.7390    3.6420 h1        1 MOL      0.133598
    180 H87         7.1460   -0.0840    4.0710 h1        1 MOL      0.133598
    181 H88         5.6660   -0.7820    4.7720 h1        1 MOL      0.133598
    182 H89         5.4250   -0.7120    1.8870 hn        1 MOL      0.037557
    183 Ca1        -1.8440   -0.7660   -1.3620 Ca        1 MOL      1.762110
    184 O25        -0.6560   -3.3030   -2.2700 oh        1 MOL     -0.912608
    185 H90        -1.2560   -4.0280   -2.0760 ho        1 MOL      0.405718
    186 H91        -0.1280   -3.6110   -3.0010 ho        1 MOL      0.405718
    187 O26        -0.6790    0.0910   -3.8320 oh        1 MOL     -0.912608
    188 H92        -1.3860    0.5680   -4.2720 ho        1 MOL      0.405718
    189 H93        -0.0610   -0.1290   -4.5310 ho        1 MOL      0.405718
@<TRIPOS>BOND
     1    1    2 1   
     2    1    4 1   
     3    1    5 1   
     4    1    6 1   
     5    2    3 2   
     6    2    7 1   
     7    7    8 1   
     8    7   15 1   
     9    8    9 1   
    10    8   11 1   
    11    8   16 1   
    12    9   10 2   
    13    9   19 1   
    14   11   12 1   
    15   11   17 1   
    16   11   18 1   
    17   12   13 1   
    18   12   14 1   
    19   19   20 1   
    20   19   28 1   
    21   20   21 1   
    22   20   23 1   
    23   20   29 1   
    24   21   22 2   
    25   21   41 1   
    26   23   24 1   
    27   23   30 1   
    28   23   31 1   
    29   24   25 1   
    30   24   32 1   
    31   24   33 1   
    32   25   26 1   
    33   25   34 1   
    34   25   35 1   
    35   26   27 1   
    36   26   36 1   
    37   26   37 1   
    38   27   38 1   
    39   27   39 1   
    40   27   40 1   
    41   41   42 1   
    42   41   49 1   
    43   42   43 1   
    44   42   45 1   
    45   42   50 1   
    46   43   44 2   
    47   43   53 1   
    48   45   46 1   
    49   45   51 1   
    50   45   52 1   
    51   46   47 1   
    52   46   48 1   
    53   53   54 1   
    54   53   57 1   
    55   54   55 1   
    56   54   58 1   
    57   54   59 1   
    58   55   56 2   
    59   55   60 1   
    60   60   61 1   
    61   60   68 1   
    62   61   62 1   
    63   61   64 1   
    64   61   69 1   
    65   62   63 2   
    66   62   72 1   
    67   64   65 1   
    68   64   70 1   
    69   64   71 1   
    70   65   66 1   
    71   65   67 1   
    72   72   73 1   
    73   72   76 1   
    74   73   74 1   
    75   73   77 1   
    76   73   78 1   
    77   74   75 2   
    78   74   79 1   
    79   79   80 1   
    80   79   86 1   
    81   80   81 1   
    82   80   83 1   
    83   80   87 1   
    84   81   82 2   
    85   81   93 1   
    86   83   84 1   
    87   83   85 1   
    88   83   88 1   
    89   84   90 1   
    90   84   91 1   
    91   84   92 1   
    92   85   89 1   
    93   93   94 1   
    94   93  101 1   
    95   94   95 1   
    96   94   97 1   
    97   94  102 1   
    98   95   96 2   
    99   95  112 1   
   100   97   98 1   
   101   97   99 1   
   102   97  103 1   
   103   98  100 1   
   104   98  104 1   
   105   98  105 1   
   106   99  106 1   
   107   99  107 1   
   108   99  108 1   
   109  100  109 1   
   110  100  110 1   
   111  100  111 1   
   112  112  113 1   
   113  112  119 1   
   114  113  114 1   
   115  113  116 1   
   116  113  120 1   
   117  114  115 2   
   118  114  126 1   
   119  116  117 1   
   120  116  118 1   
   121  116  121 1   
   122  117  123 1   
   123  117  124 1   
   124  117  125 1   
   125  118  122 1   
   126  126  127 1   
   127  126  133 1   
   128  127  128 1   
   129  127  130 1   
   130  127  134 1   
   131  128  129 2   
   132  128  140 1   
   133  130  131 1   
   134  130  132 1   
   135  130  135 1   
   136  131  137 1   
   137  131  138 1   
   138  131  139 1   
   139  132  136 1   
   140  140  141 1   
   141  140  149 1   
   142  141  142 1   
   143  141  144 1   
   144  141  150 1   
   145  142  143 2   
   146  142  162 1   
   147  144  145 1   
   148  144  151 1   
   149  144  152 1   
   150  145  146 1   
   151  145  153 1   
   152  145  154 1   
   153  146  147 1   
   154  146  155 1   
   155  146  156 1   
   156  147  148 1   
   157  147  157 1   
   158  147  158 1   
   159  148  159 1   
   160  148  160 1   
   161  148  161 1   
   162  162  163 1   
   163  162  171 1   
   164  163  164 1   
   165  163  166 1   
   166  163  172 1   
   167  164  165 2   
   168  164  177 1   
   169  166  167 1   
   170  166  173 1   
   171  166  174 1   
   172  167  168 1   
   173  167  175 1   
   174  167  176 1   
   175  168  169 1   
   176  168  170 1   
   177  177  178 1   
   178  177  182 1   
   179  178  179 1   
   180  178  180 1   
   181  178  181 1   
   182  184  185 1   
   183  184  186 1   
   184  187  188 1   
   185  187  189 1   
@<TRIPOS>SUBSTRUCTURE
     1 MOL         1 TEMP              0 ****  ****    0 ROOT
