@<TRIPOS>MOLECULE
MOL
  169   169     1     0     0
SMALL
resp


@<TRIPOS>ATOM
      1 C1          0.0670    2.9060    6.0040 c3        1 MOL     -0.384719
      2 C2         -0.2980    2.7600    4.5450 c         1 MOL      0.771273
      3 O1          0.3370    3.4550    3.7860 o         1 MOL     -0.577816
      4 H1          1.0360    3.3970    6.0880 hc        1 MOL      0.091780
      5 H2         -0.6890    3.5060    6.5100 hc        1 MOL      0.091780
      6 H3          0.1190    1.9210    6.4670 hc        1 MOL      0.091780
      7 N1         -1.3640    2.0300    4.1220 n         1 MOL     -0.655894
      8 C3         -2.0310    2.0380    2.8120 c3        1 MOL      0.122495
      9 C4         -2.4640    3.4180    2.3310 c         1 MOL      0.640028
     10 O2         -3.2490    4.1630    2.9910 o         1 MOL     -0.584245
     11 C5         -3.2130    1.1530    2.9000 c3        1 MOL     -0.183659
     12 C6         -3.8020    0.7880    1.5390 c         1 MOL      0.764414
     13 O3         -3.3150    1.1790    0.4510 o         1 MOL     -0.727992
     14 O4         -4.8550    0.1560    1.5970 o         1 MOL     -0.727992
     15 H4         -1.8330    1.5060    4.8470 hn        1 MOL      0.303729
     16 H5         -1.3390    1.6270    2.0790 h1        1 MOL      0.092366
     17 H6         -3.9830    1.6510    3.4860 hc        1 MOL      0.049902
     18 H7         -2.8840    0.2320    3.3930 hc        1 MOL      0.049902
     19 N2         -1.9990    3.7580    1.0750 n         1 MOL     -0.524910
     20 C7         -2.2630    5.1030    0.4490 c3        1 MOL      0.272014
     21 C8         -3.2400    5.0950   -0.7220 c         1 MOL      0.299828
     22 O5         -4.1080    6.0150   -0.8970 o         1 MOL     -0.565474
     23 C9         -1.0120    5.7380   -0.1920 c3        1 MOL     -0.277748
     24 H8         -1.4870    3.1200    0.4710 hn        1 MOL      0.254575
     25 H9         -2.6800    5.7810    1.1850 h1        1 MOL      0.044031
     26 H10        -0.2900    5.7810    0.6250 hc        1 MOL      0.069613
     27 H11        -0.5060    5.2600   -1.0240 hc        1 MOL      0.069613
     28 H12        -1.2240    6.7930   -0.3960 hc        1 MOL      0.069613
     29 N3         -3.3330    3.9400   -1.3610 n         1 MOL     -0.108455
     30 C10        -4.4410    3.7640   -2.4040 c3        1 MOL     -0.083651
     31 C11        -5.7370    3.2160   -1.8770 c         1 MOL      0.501130
     32 O6         -6.7460    3.3030   -2.5560 o         1 MOL     -0.554966
     33 C12        -3.8990    2.9350   -3.6180 c3        1 MOL     -0.218633
     34 C13        -3.2620    1.6410   -3.2130 c         1 MOL      0.754888
     35 O7         -3.9340    0.8480   -2.5230 o         1 MOL     -0.730876
     36 O8         -2.0900    1.3080   -3.5630 o         1 MOL     -0.730876
     37 H13        -2.7980    3.1710   -0.9990 hn        1 MOL      0.121627
     38 H14        -4.6560    4.7440   -2.8330 h1        1 MOL      0.128617
     39 H15        -3.1690    3.6040   -4.0820 hc        1 MOL      0.060887
     40 H16        -4.6750    2.6540   -4.3420 hc        1 MOL      0.060887
     41 N4         -5.6910    2.6990   -0.6240 n         1 MOL     -0.185433
     42 C14        -6.8550    2.1430   -0.0100 c3        1 MOL     -0.360535
     43 C15        -7.4070    0.8490   -0.6200 c         1 MOL      0.639757
     44 O9         -8.5390    0.5570   -0.2810 o         1 MOL     -0.608012
     45 H17        -4.7960    2.6290   -0.1670 hn        1 MOL      0.232070
     46 H18        -7.6800    2.8520   -0.0390 h1        1 MOL      0.144837
     47 H19        -6.5550    1.9560    1.0170 h1        1 MOL      0.144837
     48 N5         -6.6130    0.0450   -1.3380 n         1 MOL     -0.329109
     49 C16        -6.8380   -1.3730   -1.6790 c3        1 MOL     -0.044060
     50 C17        -6.7190   -2.3580   -0.4760 c         1 MOL      0.435080
     51 O10        -6.8030   -3.5790   -0.6980 o         1 MOL     -0.540459
     52 C18        -6.0740   -1.7500   -2.8870 c3        1 MOL     -0.170071
     53 C19        -4.5440   -2.0690   -2.6360 c         1 MOL      0.573342
     54 N6         -3.8100   -2.4680   -3.6270 n         1 MOL     -0.650275
     55 O11        -3.9220   -1.9340   -1.5620 o         1 MOL     -0.695394
     56 H20        -5.7410    0.4350   -1.6600 hn        1 MOL      0.236551
     57 H21        -7.8870   -1.3620   -1.9840 h1        1 MOL      0.101033
     58 H22        -6.2770   -1.0250   -3.6710 hc        1 MOL      0.088887
     59 H23        -6.3930   -2.7250   -3.2470 hc        1 MOL      0.088887
     60 H24        -4.2470   -2.4680   -4.5370 hn        1 MOL      0.336701
     61 H25        -2.8430   -2.6680   -3.4330 hn        1 MOL      0.336701
     62 N7         -6.5330   -1.9260    0.7520 n         1 MOL     -0.263304
     63 C20        -6.3320   -2.7550    1.9990 c3        1 MOL     -0.205172
     64 C21        -5.0410   -3.6380    2.0400 c         1 MOL      0.564185
     65 O12        -4.9470   -4.5330    2.8370 o         1 MOL     -0.569951
     66 H26        -6.4580   -0.9360    0.9040 hn        1 MOL      0.298945
     67 H27        -7.1680   -3.4600    2.0440 h1        1 MOL      0.121169
     68 H28        -6.3550   -2.2440    2.9600 h1        1 MOL      0.121169
     69 N8         -4.0260   -3.3350    1.2350 n         1 MOL     -0.378800
     70 C22        -2.8580   -4.1410    0.9210 c3        1 MOL      0.037015
     71 C23        -1.5650   -3.3190    0.8220 c         1 MOL      0.528087
     72 O13        -1.6450   -2.2490    0.1580 o         1 MOL     -0.603110
     73 C24        -3.0470   -4.9880   -0.3570 c3        1 MOL      0.447812
     74 C25        -1.9800   -5.9680   -0.7540 c3        1 MOL     -0.480083
     75 O14        -4.1490   -5.8940   -0.1780 oh        1 MOL     -0.624841
     76 H29        -4.1330   -2.4850    0.7060 hn        1 MOL      0.257363
     77 H30        -2.6990   -4.8390    1.7450 h1        1 MOL      0.072290
     78 H31        -3.2640   -4.3200   -1.1910 h1        1 MOL      0.045212
     79 H32        -4.7320   -5.9530   -0.9340 ho        1 MOL      0.378154
     80 H33        -1.1640   -5.3680   -1.1430 hc        1 MOL      0.109512
     81 H34        -1.5720   -6.4410    0.1380 hc        1 MOL      0.109512
     82 H35        -2.3210   -6.5980   -1.5800 hc        1 MOL      0.109512
     83 N9         -0.4580   -3.7830    1.4880 n         1 MOL     -0.494462
     84 C26         0.8080   -3.0430    1.4650 c3        1 MOL      0.054360
     85 C27         1.5540   -3.1480    0.1550 c         1 MOL      0.588936
     86 O15         2.1780   -4.1980   -0.0980 o         1 MOL     -0.603576
     87 C28         1.6680   -3.3440    2.7070 c3        1 MOL      0.020976
     88 C29         0.9750   -2.8740    4.0490 c3        1 MOL      0.039216
     89 C30         3.0850   -2.7480    2.7300 c3        1 MOL      0.045554
     90 C31         1.6580   -3.2070    5.4060 c3        1 MOL     -0.119741
     91 H36        -0.4380   -4.6350    2.0300 hn        1 MOL      0.291495
     92 H37         0.5060   -2.0000    1.4350 h1        1 MOL      0.116064
     93 H38         1.8820   -4.4140    2.6870 hc        1 MOL     -0.001811
     94 H39        -0.0220   -3.3020    4.1610 hc        1 MOL      0.003586
     95 H40         0.7990   -1.8030    3.9350 hc        1 MOL      0.003586
     96 H41         2.9440   -1.6960    2.9370 hc        1 MOL     -0.013572
     97 H42         3.6960   -3.2660    3.4660 hc        1 MOL     -0.013572
     98 H43         3.6130   -2.8820    1.7890 hc        1 MOL     -0.013572
     99 H44         1.0270   -2.8810    6.2330 hc        1 MOL      0.020299
    100 H45         1.7510   -4.2990    5.4850 hc        1 MOL      0.020299
    101 H46         2.6330   -2.7480    5.5460 hc        1 MOL      0.020299
    102 N10         1.6610   -2.0480   -0.6600 n         1 MOL     -0.282448
    103 C32         2.6830   -1.8390   -1.6510 c3        1 MOL      0.217649
    104 C33         4.0620   -1.5610   -1.0650 c         1 MOL      0.371001
    105 O16         4.1440   -1.0310    0.0300 o         1 MOL     -0.245408
    106 C34         2.2810   -0.7280   -2.6220 c3        1 MOL     -0.282657
    107 C35         0.9680   -0.8910   -3.3490 c         1 MOL      0.842111
    108 O17         0.9530   -1.3920   -4.4690 o         1 MOL     -0.736538
    109 O18        -0.0610   -0.7070   -2.7790 o         1 MOL     -0.736538
    110 H47         1.1730   -1.2030   -0.4020 hn        1 MOL     -0.073344
    111 H48         2.7350   -2.7420   -2.2690 h1        1 MOL      0.015173
    112 H49         3.0280   -0.5760   -3.4060 hc        1 MOL      0.065555
    113 H50         2.2160    0.1890   -2.0350 hc        1 MOL      0.065555
    114 N11         5.1490   -1.6940   -1.8530 n         1 MOL     -0.623638
    115 C36         6.4750   -1.4280   -1.3710 c3        1 MOL      0.398020
    116 C37         6.6500    0.0190   -0.7860 c         1 MOL      0.298420
    117 O19         7.1580    0.1730    0.3560 o         1 MOL     -0.475660
    118 C38         7.5600   -1.7310   -2.4420 c3        1 MOL     -0.103146
    119 C39         8.9910   -1.3570   -2.0950 ca        1 MOL      0.110278
    120 C40         9.5880   -1.8610   -0.9470 ca        1 MOL     -0.215903
    121 C41         9.7520   -0.3750   -2.8400 ca        1 MOL     -0.215903
    122 C42        10.8480   -1.4260   -0.5230 ca        1 MOL     -0.065161
    123 C43        10.9410    0.1430   -2.4070 ca        1 MOL     -0.065161
    124 C44        11.5310   -0.4460   -1.2530 ca        1 MOL     -0.143354
    125 H51         5.0640   -2.1950   -2.7270 hn        1 MOL      0.317652
    126 H52         6.6150   -2.0850   -0.5260 h1        1 MOL      0.022015
    127 H53         7.3760   -1.3350   -3.4440 hc        1 MOL      0.029121
    128 H54         7.5560   -2.8110   -2.5710 hc        1 MOL      0.029121
    129 H55         9.0450   -2.5210   -0.2990 ha        1 MOL      0.124392
    130 H56         9.3790    0.1450   -3.7190 ha        1 MOL      0.124392
    131 H57        11.2770   -1.8660    0.3590 ha        1 MOL      0.107764
    132 H58        11.4460    0.9510   -2.9150 ha        1 MOL      0.107764
    133 H59        12.5360   -0.1810   -0.9600 ha        1 MOL      0.096242
    134 N12         6.1300    1.0990   -1.4110 n         1 MOL     -0.143769
    135 C45         6.2060    2.4670   -0.8270 c3        1 MOL      0.177135
    136 C46         5.4890    2.6020    0.5220 c         1 MOL      0.182019
    137 O20         5.7570    3.5510    1.2470 o         1 MOL     -0.504972
    138 C47         5.5910    3.4420   -1.8250 c3        1 MOL     -0.059850
    139 C48         5.7060    2.7020   -3.2010 c3        1 MOL     -0.005393
    140 C49         5.6740    1.2380   -2.7920 c3        1 MOL     -0.073961
    141 H60         7.2480    2.7070   -0.6220 h1        1 MOL      0.050984
    142 H61         4.5410    3.6600   -1.6220 hc        1 MOL      0.038505
    143 H62         6.2460    4.3110   -1.8160 hc        1 MOL      0.038505
    144 H63         4.9190    2.9420   -3.9230 hc        1 MOL      0.014936
    145 H64         6.7320    2.8570   -3.5430 hc        1 MOL      0.014936
    146 H65         4.6360    0.9330   -2.9620 h1        1 MOL      0.054046
    147 H66         6.2030    0.5840   -3.4850 h1        1 MOL      0.054046
    148 N13         4.5460    1.7230    0.7570 n         1 MOL      0.040889
    149 C50         3.7530    1.8740    1.9650 c3        1 MOL     -0.019968
    150 C51         4.4030    1.2040    3.1810 c         1 MOL      0.410126
    151 O21         4.2240    1.6720    4.3280 o         1 MOL     -0.560011
    152 C52         2.3190    1.3080    1.6690 c3        1 MOL      0.026053
    153 C53         1.6560    1.9370    0.4360 c3        1 MOL      0.026282
    154 C54         0.3040    1.3200    0.1180 c         1 MOL      0.531170
    155 O22        -0.0440    0.1010    0.3810 o         1 MOL     -0.649575
    156 O23        -0.5080    1.9430   -0.5930 o         1 MOL     -0.649575
    157 H67         4.4680    0.8980    0.1780 hn        1 MOL      0.026809
    158 H68         3.6060    2.8960    2.3080 h1        1 MOL      0.091367
    159 H69         1.6260    1.4990    2.4840 hc        1 MOL     -0.011757
    160 H70         2.3920    0.2300    1.5250 hc        1 MOL     -0.011757
    161 H71         2.3730    1.8280   -0.3710 hc        1 MOL      0.031559
    162 H72         1.6100    3.0230    0.5560 hc        1 MOL      0.031559
    163 N14         5.1930    0.1430    2.9290 n         1 MOL      0.084957
    164 C55         6.1340   -0.4750    3.8070 c3        1 MOL     -0.258866
    165 H73         6.8600    0.2670    4.1410 h1        1 MOL      0.084889
    166 H74         5.6100   -0.8840    4.6720 h1        1 MOL      0.084889
    167 H75         6.6510   -1.2780    3.2810 h1        1 MOL      0.084889
    168 H76         5.1770   -0.1090    1.9470 hn        1 MOL     -0.035117
    169 Ca1        -2.0390   -0.2120   -1.2900 Ca        1 MOL      1.773413
@<TRIPOS>BOND
     1    1    2 1   
     2    1    4 1   
     3    1    5 1   
     4    1    6 1   
     5    2    3 2   
     6    2    7 1   
     7    7    8 1   
     8    7   15 1   
     9    8    9 1   
    10    8   11 1   
    11    8   16 1   
    12    9   10 2   
    13    9   19 1   
    14   11   12 1   
    15   11   17 1   
    16   11   18 1   
    17   12   13 1   
    18   12   14 1   
    19   19   20 1   
    20   19   24 1   
    21   20   21 1   
    22   20   23 1   
    23   20   25 1   
    24   21   22 2   
    25   21   29 1   
    26   23   26 1   
    27   23   27 1   
    28   23   28 1   
    29   29   30 1   
    30   29   37 1   
    31   30   31 1   
    32   30   33 1   
    33   30   38 1   
    34   31   32 2   
    35   31   41 1   
    36   33   34 1   
    37   33   39 1   
    38   33   40 1   
    39   34   35 1   
    40   34   36 1   
    41   41   42 1   
    42   41   45 1   
    43   42   43 1   
    44   42   46 1   
    45   42   47 1   
    46   43   44 2   
    47   43   48 1   
    48   48   49 1   
    49   48   56 1   
    50   49   50 1   
    51   49   52 1   
    52   49   57 1   
    53   50   51 2   
    54   50   62 1   
    55   52   53 1   
    56   52   58 1   
    57   52   59 1   
    58   53   54 1   
    59   53   55 2   
    60   54   60 1   
    61   54   61 1   
    62   62   63 1   
    63   62   66 1   
    64   63   64 1   
    65   63   67 1   
    66   63   68 1   
    67   64   65 2   
    68   64   69 1   
    69   69   70 1   
    70   69   76 1   
    71   70   71 1   
    72   70   73 1   
    73   70   77 1   
    74   71   72 2   
    75   71   83 1   
    76   73   74 1   
    77   73   75 1   
    78   73   78 1   
    79   74   80 1   
    80   74   81 1   
    81   74   82 1   
    82   75   79 1   
    83   83   84 1   
    84   83   91 1   
    85   84   85 1   
    86   84   87 1   
    87   84   92 1   
    88   85   86 2   
    89   85  102 1   
    90   87   88 1   
    91   87   89 1   
    92   87   93 1   
    93   88   90 1   
    94   88   94 1   
    95   88   95 1   
    96   89   96 1   
    97   89   97 1   
    98   89   98 1   
    99   90   99 1   
   100   90  100 1   
   101   90  101 1   
   102  102  103 1   
   103  102  110 1   
   104  103  104 1   
   105  103  106 1   
   106  103  111 1   
   107  104  105 2   
   108  104  114 1   
   109  106  107 1   
   110  106  112 1   
   111  106  113 1   
   112  107  108 1   
   113  107  109 1   
   114  114  115 1   
   115  114  125 1   
   116  115  116 1   
   117  115  118 1   
   118  115  126 1   
   119  116  117 2   
   120  116  134 1   
   121  118  119 1   
   122  118  127 1   
   123  118  128 1   
   124  119  120 ar  
   125  119  121 ar  
   126  120  122 ar  
   127  120  129 1   
   128  121  123 ar  
   129  121  130 1   
   130  122  124 ar  
   131  122  131 1   
   132  123  124 ar  
   133  123  132 1   
   134  124  133 1   
   135  134  135 1   
   136  134  140 1   
   137  135  136 1   
   138  135  138 1   
   139  135  141 1   
   140  136  137 2   
   141  136  148 1   
   142  138  139 1   
   143  138  142 1   
   144  138  143 1   
   145  139  140 1   
   146  139  144 1   
   147  139  145 1   
   148  140  146 1   
   149  140  147 1   
   150  148  149 1   
   151  148  157 1   
   152  149  150 1   
   153  149  152 1   
   154  149  158 1   
   155  150  151 2   
   156  150  163 1   
   157  152  153 1   
   158  152  159 1   
   159  152  160 1   
   160  153  154 1   
   161  153  161 1   
   162  153  162 1   
   163  154  155 1   
   164  154  156 1   
   165  163  164 1   
   166  163  168 1   
   167  164  165 1   
   168  164  166 1   
   169  164  167 1   
@<TRIPOS>SUBSTRUCTURE
     1 MOL         1 TEMP              0 ****  ****    0 ROOT
