@<TRIPOS>MOLECULE
MOL
  182   178     1     0     0
SMALL
resp


@<TRIPOS>ATOM
      1 C1         -2.5770   -2.1880    5.2830 c3        1 MOL     -0.214968
      2 C2         -1.8170   -2.3750    3.9510 c         1 MOL      0.621316
      3 O1         -2.4880   -2.8910    3.0490 o         1 MOL     -0.570691
      4 H1         -2.8430   -3.1640    5.6890 hc        1 MOL      0.057529
      5 H2         -1.9410   -1.6610    5.9940 hc        1 MOL      0.057529
      6 H3         -3.4840   -1.6100    5.1070 hc        1 MOL      0.057529
      7 N1         -0.5520   -1.9200    3.8990 n         1 MOL     -0.487667
      8 C3          0.3440   -1.9500    2.7420 c3        1 MOL     -0.001933
      9 C4          0.5680   -3.4060    2.2240 c         1 MOL      0.541565
     10 O2          1.4990   -4.0870    2.6480 o         1 MOL     -0.519252
     11 C5          1.5820   -1.1900    3.1790 c3        1 MOL     -0.071317
     12 C6          2.6310   -0.9990    2.0370 c         1 MOL      0.535236
     13 O3          2.3290   -1.3230    0.8510 o         1 MOL     -0.628973
     14 O4          3.7590   -0.4800    2.3730 o         1 MOL     -0.628973
     15 H4         -0.1940   -1.5000    4.7380 hn        1 MOL      0.295349
     16 H5         -0.1400   -1.3490    1.9760 h1        1 MOL      0.045564
     17 H6          2.1290   -1.5210    4.0620 hc        1 MOL      0.058713
     18 H7          1.2270   -0.2190    3.5140 hc        1 MOL      0.058713
     19 N2         -0.2750   -3.8760    1.2370 n         1 MOL     -0.275614
     20 C7         -0.2600   -5.2820    0.8340 c3        1 MOL      0.023035
     21 C8          1.0240   -5.7990    0.2240 c         1 MOL      0.438722
     22 O5          1.2460   -7.0150    0.1890 o         1 MOL     -0.548799
     23 C9         -1.4890   -5.5230   -0.0790 c3        1 MOL     -0.336964
     24 C10        -1.4850   -4.6910   -1.3390 c3        1 MOL      0.581932
     25 C11        -2.5080   -5.2490   -2.4080 c3        1 MOL     -0.207340
     26 C12        -2.5250   -4.3040   -3.6480 c3        1 MOL      0.243424
     27 N3         -3.1740   -5.0880   -4.7320 n4        1 MOL     -0.348174
     28 H8         -0.9620   -3.2380    0.8770 hn        1 MOL      0.265379
     29 H9         -0.3720   -5.9140    1.7180 h1        1 MOL      0.096620
     30 H10        -2.4500   -5.4240    0.4350 hc        1 MOL      0.081785
     31 H11        -1.3620   -6.5320   -0.4710 hc        1 MOL      0.081785
     32 H12        -0.5150   -4.8530   -1.8210 hc        1 MOL     -0.127202
     33 H13        -1.7550   -3.6680   -1.1130 hc        1 MOL     -0.127202
     34 H14        -3.4980   -5.0990   -1.9810 hc        1 MOL      0.037544
     35 H15        -2.2620   -6.2770   -2.6840 hc        1 MOL      0.037544
     36 H16        -1.4890   -4.0240   -3.8350 hx        1 MOL     -0.009944
     37 H17        -3.0050   -3.3640   -3.3710 hx        1 MOL     -0.009944
     38 H18        -4.0430   -5.5350   -4.4560 hn        1 MOL      0.316101
     39 H19        -3.4180   -4.5280   -5.5300 hn        1 MOL      0.316101
     40 H20        -2.5640   -5.7380   -5.1910 hn        1 MOL      0.316101
     41 N4          1.7960   -4.8740   -0.3260 n         1 MOL     -0.101349
     42 C13         3.1090   -5.1880   -0.8500 c3        1 MOL     -0.022151
     43 C14         4.1540   -4.7190    0.1330 c         1 MOL      0.461351
     44 O6          5.1760   -5.4070    0.2220 o         1 MOL     -0.574204
     45 C15         3.3840   -4.7000   -2.3060 c3        1 MOL     -0.327358
     46 C16         3.1340   -3.2640   -2.5920 c         1 MOL      0.811177
     47 O7          2.5490   -2.5210   -1.8380 o         1 MOL     -0.741485
     48 O8          3.5850   -2.8920   -3.7440 o         1 MOL     -0.741485
     49 H21         1.4190   -3.9400   -0.3920 hn        1 MOL      0.064583
     50 H22         3.1710   -6.2770   -0.7950 h1        1 MOL      0.110026
     51 H23         2.7730   -5.3500   -2.9370 hc        1 MOL      0.103798
     52 H24         4.3980   -4.8930   -2.6410 hc        1 MOL      0.103798
     53 N5          3.9450   -3.7360    0.9800 n         1 MOL      0.028165
     54 C17         4.9760   -3.3710    1.9420 c3        1 MOL     -0.234776
     55 C18         6.0580   -2.5250    1.1750 c         1 MOL      0.537888
     56 O9          7.2240   -2.5430    1.5630 o         1 MOL     -0.533846
     57 H25         3.0930   -3.1990    0.9470 hn        1 MOL     -0.041966
     58 H26         5.4410   -4.2720    2.3400 h1        1 MOL      0.127641
     59 H27         4.5250   -2.7620    2.7200 h1        1 MOL      0.127641
     60 N6          5.5980   -1.6850    0.1760 n         1 MOL     -0.269177
     61 C19         6.3660   -0.6550   -0.4930 c3        1 MOL     -0.097447
     62 C20         6.6160    0.7040    0.2100 c         1 MOL      0.368192
     63 O10         7.3630    1.5570   -0.2660 o         1 MOL     -0.511112
     64 C21         5.8230   -0.6100   -1.9800 c3        1 MOL     -0.137935
     65 C22         4.7010    0.4380   -2.0130 c         1 MOL      0.283639
     66 N7          4.6530    1.3420   -2.9370 n         1 MOL     -0.500965
     67 O11         3.7310    0.4370   -1.2330 o         1 MOL     -0.298820
     68 H28         4.6540   -1.7280   -0.1770 hn        1 MOL      0.164154
     69 H29         7.3080   -1.1860   -0.5410 h1        1 MOL      0.119903
     70 H30         5.4720   -1.5780   -2.3270 hc        1 MOL      0.101634
     71 H31         6.6610   -0.2820   -2.5960 hc        1 MOL      0.101634
     72 H32         5.2230    1.0090   -3.7070 hn        1 MOL      0.291179
     73 H33         3.9530    2.0640   -3.0180 hn        1 MOL      0.291179
     74 N8          5.9320    0.8770    1.3130 n         1 MOL     -0.029749
     75 C23         6.0190    2.1280    2.0650 c3        1 MOL     -0.396624
     76 C24         4.9380    3.1560    1.7110 c         1 MOL      0.615837
     77 O12         4.8960    4.1820    2.3440 o         1 MOL     -0.567828
     78 H34         5.2180    0.2050    1.5650 hn        1 MOL      0.195373
     79 H35         7.0350    2.5310    2.0660 h1        1 MOL      0.154080
     80 H36         5.7050    1.7720    3.0500 h1        1 MOL      0.154080
     81 N9          3.9590    2.8390    0.8350 n         1 MOL     -0.074808
     82 C25         2.6790    3.6160    0.7200 c3        1 MOL      0.067743
     83 C26         1.4280    2.7100    0.9830 c         1 MOL      0.365780
     84 O13         1.3550    1.5640    0.7010 o         1 MOL     -0.576917
     85 C27         2.6590    4.1430   -0.6710 c3        1 MOL      0.163433
     86 C28         3.7310    5.1500   -0.9310 ca        1 MOL      0.000533
     87 C29         4.9250    4.6780   -1.4910 ca        1 MOL     -0.252316
     88 C30         3.4860    6.5000   -0.6900 ca        1 MOL     -0.252316
     89 C31         5.9450    5.6130   -1.7700 ca        1 MOL     -0.166892
     90 C32         4.4720    7.4650   -0.9990 ca        1 MOL     -0.166892
     91 C33         5.7140    7.0270   -1.5270 ca        1 MOL      0.261309
     92 O14         6.6700    7.8400   -1.7380 oh        1 MOL     -0.442318
     93 H37         4.0500    2.0230    0.2410 hn        1 MOL      0.073705
     94 H38         2.6870    4.4120    1.4540 h1        1 MOL      0.042083
     95 H39         1.7710    4.6890   -1.0150 hc        1 MOL     -0.023998
     96 H40         2.6860    3.3260   -1.3870 hc        1 MOL     -0.023998
     97 H41         5.1000    3.6330   -1.6910 ha        1 MOL      0.147359
     98 H42         2.5360    6.8170   -0.2850 ha        1 MOL      0.147359
     99 H43         6.7830    5.1680   -2.2800 ha        1 MOL      0.117850
    100 H44         4.3910    8.5330   -0.8630 ha        1 MOL      0.117850
    101 H45         6.4700    8.7750   -1.7040 ho        1 MOL      0.371350
    102 N10         0.3750    3.3690    1.4650 n         1 MOL     -0.514011
    103 C34        -0.9610    2.7480    1.6200 c3        1 MOL      0.244530
    104 C35        -1.8810    3.4550    0.6860 c         1 MOL      0.455070
    105 O15        -1.9340    4.7060    0.6640 o         1 MOL     -0.575545
    106 C36        -1.4000    2.8190    3.1150 c3        1 MOL      0.024409
    107 C37        -0.4580    1.9530    3.9470 c3        1 MOL      0.185459
    108 C38        -2.8710    2.5100    3.3790 c3        1 MOL     -0.301303
    109 C39        -0.4690    2.3720    5.4700 c3        1 MOL     -0.351066
    110 H46         0.4260    4.3660    1.6140 hn        1 MOL      0.301834
    111 H47        -0.9490    1.6870    1.3680 h1        1 MOL      0.018353
    112 H48        -1.1750    3.8540    3.3680 hc        1 MOL      0.032174
    113 H49         0.5540    1.9980    3.5570 hc        1 MOL     -0.016814
    114 H50        -0.7090    0.8940    3.9380 hc        1 MOL     -0.016814
    115 H51        -3.2500    1.5700    2.9740 hc        1 MOL      0.060191
    116 H52        -3.0230    2.3930    4.4550 hc        1 MOL      0.060191
    117 H53        -3.4770    3.3380    3.0180 hc        1 MOL      0.060191
    118 H54         0.3280    1.8300    5.9720 hc        1 MOL      0.085120
    119 H55        -0.1400    3.3940    5.6770 hc        1 MOL      0.085120
    120 H56        -1.4480    2.2230    5.9470 hc        1 MOL      0.085120
    121 N11        -2.7070    2.7410   -0.0830 n         1 MOL     -0.368841
    122 C40        -3.6530    3.2090   -1.1460 c3        1 MOL      0.114383
    123 C41        -5.0380    3.0440   -0.6410 c         1 MOL      0.430921
    124 O16        -5.2970    2.1710    0.2410 o         1 MOL     -0.446201
    125 C42        -3.4830    2.4660   -2.3850 c3        1 MOL      0.220991
    126 O17        -2.1190    2.2270   -2.6230 oh        1 MOL     -0.621370
    127 H57        -2.7230    1.7900    0.2760 hn        1 MOL      0.394879
    128 H58        -3.5370    4.2580   -1.3910 h1        1 MOL      0.083306
    129 H59        -3.8120    3.1470   -3.1690 h1        1 MOL     -0.020905
    130 H60        -4.1250    1.5840   -2.4370 h1        1 MOL     -0.020905
    131 H61        -1.8030    1.6150   -1.9550 ho        1 MOL      0.408973
    132 N12        -5.9290    3.8180   -1.2050 n         1 MOL     -0.595240
    133 C43        -7.3740    3.7970   -0.8050 c3        1 MOL      0.434430
    134 C44        -7.9000    2.3820   -0.8050 c         1 MOL      0.202716
    135 O18        -8.6320    2.0140    0.0530 o         1 MOL     -0.461318
    136 C45        -8.2000    4.7570   -1.6120 c3        1 MOL     -0.395383
    137 H62        -5.6270    4.5330   -1.8510 hn        1 MOL      0.305073
    138 H63        -7.4680    4.1500    0.2190 h1        1 MOL      0.036938
    139 H64        -8.4430    4.3860   -2.6030 hc        1 MOL      0.114896
    140 H65        -9.0550    5.0800   -1.0140 hc        1 MOL      0.114896
    141 H66        -7.6700    5.7110   -1.6840 hc        1 MOL      0.114896
    142 N13        -7.7030    1.6140   -1.8470 n         1 MOL     -0.145821
    143 C46        -8.1180    0.2080   -1.9880 c3        1 MOL      0.093329
    144 C47        -7.4190   -0.7510   -0.9750 c         1 MOL      0.325101
    145 O19        -8.0180   -1.7220   -0.4660 o         1 MOL     -0.475939
    146 C48        -7.7770   -0.3200   -3.3890 c3        1 MOL     -0.332094
    147 H67        -7.2650    1.9710   -2.6840 hn        1 MOL      0.169102
    148 H68        -9.1910    0.0680   -1.8850 h1        1 MOL      0.100163
    149 H69        -6.7010   -0.2680   -3.5920 hc        1 MOL      0.088268
    150 H70        -7.9820   -1.3820   -3.4290 hc        1 MOL      0.088268
    151 H71        -8.3800    0.2070   -4.1340 hc        1 MOL      0.088268
    152 N14        -6.1930   -0.4360   -0.4820 n         1 MOL     -0.092458
    153 C49        -5.4470   -1.1430    0.5880 c3        1 MOL     -0.260460
    154 C50        -6.0330   -0.9000    1.9820 c         1 MOL      0.557883
    155 O20        -6.3100   -1.8330    2.7270 o         1 MOL     -0.517443
    156 C51        -3.9860   -0.6920    0.5480 c3        1 MOL      0.304578
    157 C52        -3.2560   -1.1280   -0.7760 c3        1 MOL     -0.241980
    158 C53        -1.7490   -0.7780   -0.7230 c         1 MOL      0.825369
    159 O21        -1.4080    0.3420   -1.1350 o         1 MOL     -0.777369
    160 O22        -0.8790   -1.5900   -0.2860 o         1 MOL     -0.777369
    161 H72        -5.5920    0.1980   -0.9890 hn        1 MOL      0.143361
    162 H73        -5.3300   -2.1890    0.3250 h1        1 MOL      0.127936
    163 H74        -3.4730   -1.2430    1.3280 hc        1 MOL     -0.079975
    164 H75        -3.8380    0.3650    0.7850 hc        1 MOL     -0.079975
    165 H76        -3.6950   -0.8210   -1.7250 hc        1 MOL      0.028787
    166 H77        -3.3590   -2.2120   -0.8530 hc        1 MOL      0.028787
    167 N15        -6.3670    0.4070    2.2990 n         1 MOL     -0.154088
    168 C54        -7.0200    0.7890    3.5540 c3        1 MOL     -0.325757
    169 H78        -7.2870   -0.1080    4.1120 h1        1 MOL      0.125479
    170 H79        -6.3380    1.3970    4.1480 h1        1 MOL      0.125479
    171 H80        -7.9210    1.3620    3.3360 h1        1 MOL      0.125479
    172 H81        -6.1590    1.1000    1.5910 hn        1 MOL      0.174834
    173 Ca1         1.1790   -0.4660   -1.3540 Ca        1 MOL      1.773458
    174 O23         2.2990   -0.4390   -3.9570 oh        1 MOL     -0.838739
    175 H82         2.7510   -1.2500   -3.7030 ho        1 MOL      0.396489
    176 H83         2.3800   -0.4170   -4.9130 ho        1 MOL      0.396489
    177 O24         0.9380    1.8580   -2.6440 oh        1 MOL     -0.838739
    178 H84         1.5220    2.3450   -3.2110 ho        1 MOL      0.396489
    179 H85         0.0630    2.1630   -2.8660 ho        1 MOL      0.396489
    180 O25        -0.3450   -1.7340   -3.4850 oh        1 MOL     -0.838739
    181 H86        -1.2300   -1.6780   -3.8120 ho        1 MOL      0.396489
    182 H87         0.1070   -2.3060   -4.1120 ho        1 MOL      0.396489
@<TRIPOS>BOND
     1    1    2 1   
     2    1    4 1   
     3    1    5 1   
     4    1    6 1   
     5    2    3 2   
     6    2    7 1   
     7    7    8 1   
     8    7   15 1   
     9    8    9 1   
    10    8   11 1   
    11    8   16 1   
    12    9   10 2   
    13    9   19 1   
    14   11   12 1   
    15   11   17 1   
    16   11   18 1   
    17   12   13 1   
    18   12   14 1   
    19   19   20 1   
    20   19   28 1   
    21   20   21 1   
    22   20   23 1   
    23   20   29 1   
    24   21   22 2   
    25   21   41 1   
    26   23   24 1   
    27   23   30 1   
    28   23   31 1   
    29   24   25 1   
    30   24   32 1   
    31   24   33 1   
    32   25   26 1   
    33   25   34 1   
    34   25   35 1   
    35   26   27 1   
    36   26   36 1   
    37   26   37 1   
    38   27   38 1   
    39   27   39 1   
    40   27   40 1   
    41   41   42 1   
    42   41   49 1   
    43   42   43 1   
    44   42   45 1   
    45   42   50 1   
    46   43   44 2   
    47   43   53 1   
    48   45   46 1   
    49   45   51 1   
    50   45   52 1   
    51   46   47 1   
    52   46   48 1   
    53   53   54 1   
    54   53   57 1   
    55   54   55 1   
    56   54   58 1   
    57   54   59 1   
    58   55   56 2   
    59   55   60 1   
    60   60   61 1   
    61   60   68 1   
    62   61   62 1   
    63   61   64 1   
    64   61   69 1   
    65   62   63 2   
    66   62   74 1   
    67   64   65 1   
    68   64   70 1   
    69   64   71 1   
    70   65   66 1   
    71   65   67 2   
    72   66   72 1   
    73   66   73 1   
    74   74   75 1   
    75   74   78 1   
    76   75   76 1   
    77   75   79 1   
    78   75   80 1   
    79   76   77 2   
    80   76   81 1   
    81   81   82 1   
    82   81   93 1   
    83   82   83 1   
    84   82   85 1   
    85   82   94 1   
    86   83   84 2   
    87   83  102 1   
    88   85   86 1   
    89   85   95 1   
    90   85   96 1   
    91   86   87 ar  
    92   86   88 ar  
    93   87   89 ar  
    94   87   97 1   
    95   88   90 ar  
    96   88   98 1   
    97   89   91 ar  
    98   89   99 1   
    99   90   91 ar  
   100   90  100 1   
   101   91   92 1   
   102   92  101 1   
   103  102  103 1   
   104  102  110 1   
   105  103  104 1   
   106  103  106 1   
   107  103  111 1   
   108  104  105 2   
   109  104  121 1   
   110  106  107 1   
   111  106  108 1   
   112  106  112 1   
   113  107  109 1   
   114  107  113 1   
   115  107  114 1   
   116  108  115 1   
   117  108  116 1   
   118  108  117 1   
   119  109  118 1   
   120  109  119 1   
   121  109  120 1   
   122  121  122 1   
   123  121  127 1   
   124  122  123 1   
   125  122  125 1   
   126  122  128 1   
   127  123  124 2   
   128  123  132 1   
   129  125  126 1   
   130  125  129 1   
   131  125  130 1   
   132  126  131 1   
   133  132  133 1   
   134  132  137 1   
   135  133  134 1   
   136  133  136 1   
   137  133  138 1   
   138  134  135 2   
   139  134  142 1   
   140  136  139 1   
   141  136  140 1   
   142  136  141 1   
   143  142  143 1   
   144  142  147 1   
   145  143  144 1   
   146  143  146 1   
   147  143  148 1   
   148  144  145 2   
   149  144  152 1   
   150  146  149 1   
   151  146  150 1   
   152  146  151 1   
   153  152  153 1   
   154  152  161 1   
   155  153  154 1   
   156  153  156 1   
   157  153  162 1   
   158  154  155 2   
   159  154  167 1   
   160  156  157 1   
   161  156  163 1   
   162  156  164 1   
   163  157  158 1   
   164  157  165 1   
   165  157  166 1   
   166  158  159 1   
   167  158  160 1   
   168  167  168 1   
   169  167  172 1   
   170  168  169 1   
   171  168  170 1   
   172  168  171 1   
   173  174  175 1   
   174  174  176 1   
   175  177  178 1   
   176  177  179 1   
   177  180  181 1   
   178  180  182 1   
@<TRIPOS>SUBSTRUCTURE
     1 MOL         1 TEMP              0 ****  ****    0 ROOT
