@<TRIPOS>MOLECULE
MOL
  175   173     1     0     0
SMALL
resp


@<TRIPOS>ATOM
      1 C1          0.3480    4.2420    5.4840 c3        1 MOL     -0.472330
      2 C2         -0.3390    4.2610    4.0880 c         1 MOL      0.736073
      3 O1          0.3500    4.5950    3.1160 o         1 MOL     -0.539111
      4 H1          0.8300    3.2770    5.6380 hc        1 MOL      0.115172
      5 H2          1.0980    5.0330    5.5310 hc        1 MOL      0.115172
      6 H3         -0.4000    4.4040    6.2600 hc        1 MOL      0.115172
      7 N1         -1.6540    4.0930    4.0500 n         1 MOL     -0.593143
      8 C3         -2.2840    3.7320    2.7950 c3        1 MOL     -0.022386
      9 C4         -2.5150    4.8500    1.7810 c         1 MOL      0.726635
     10 O2         -2.7850    5.9770    2.1870 o         1 MOL     -0.584374
     11 C5         -3.6210    3.0390    3.0390 c3        1 MOL     -0.022106
     12 C6         -4.2350    2.5160    1.8140 c         1 MOL      0.613678
     13 O3         -3.5180    1.8950    1.0070 o         1 MOL     -0.629565
     14 O4         -5.4320    2.6540    1.5930 o         1 MOL     -0.629565
     15 H4         -2.2260    3.8440    4.8450 hn        1 MOL      0.327835
     16 H5         -1.7530    2.9230    2.3070 h1        1 MOL      0.048554
     17 H6         -4.4210    3.6410    3.4530 hc        1 MOL     -0.015952
     18 H7         -3.4830    2.1920    3.7080 hc        1 MOL     -0.015952
     19 N2         -2.5880    4.5940    0.4700 n         1 MOL     -0.602013
     20 C7         -2.7130    5.5880   -0.5730 c3        1 MOL      0.086025
     21 C8         -3.5360    4.9980   -1.8030 c         1 MOL      0.560023
     22 O5         -3.5400    5.5550   -2.8870 o         1 MOL     -0.547468
     23 C9         -1.3370    5.9970   -1.0600 c3        1 MOL     -0.185291
     24 H8         -2.3860    3.6390    0.1920 hn        1 MOL      0.374599
     25 H9         -3.1620    6.5110   -0.2130 h1        1 MOL      0.067478
     26 H10        -0.6980    6.3160   -0.2370 hc        1 MOL      0.058284
     27 H11        -0.8880    5.1260   -1.5480 hc        1 MOL      0.058284
     28 H12        -1.2640    6.7360   -1.8580 hc        1 MOL      0.058284
     29 N3         -4.2670    3.8540   -1.6250 n         1 MOL     -0.545925
     30 C10        -5.0110    3.1420   -2.6930 c3        1 MOL      0.222108
     31 C11        -6.1920    2.2730   -2.2740 c         1 MOL      0.291140
     32 O6         -7.1320    2.1860   -3.1010 o         1 MOL     -0.555686
     33 C12        -3.9770    2.3070   -3.5790 c3        1 MOL     -0.401232
     34 C13        -3.2470    1.3080   -2.7290 c         1 MOL      0.878058
     35 O7         -1.9940    1.1190   -2.8610 o         1 MOL     -0.763527
     36 O8         -3.7950    0.6620   -1.8660 o         1 MOL     -0.763527
     37 H13        -4.0680    3.2730   -0.8170 hn        1 MOL      0.328421
     38 H14        -5.4440    3.9250   -3.3160 h1        1 MOL      0.074821
     39 H15        -3.2910    2.9940   -4.0600 hc        1 MOL      0.098957
     40 H16        -4.5230    1.7160   -4.3270 hc        1 MOL      0.098957
     41 N4         -6.3220    1.8230   -1.0240 n         1 MOL      0.074317
     42 C14        -7.3920    1.1020   -0.4390 c3        1 MOL     -0.255291
     43 C15        -7.5060   -0.3280   -0.9510 c         1 MOL      0.426930
     44 O9         -8.5740   -0.9280   -0.9060 o         1 MOL     -0.565634
     45 H17        -5.4660    1.9380   -0.4930 hn        1 MOL     -0.071405
     46 H18        -8.3120    1.6440   -0.6490 h1        1 MOL      0.124690
     47 H19        -7.2850    1.0490    0.6480 h1        1 MOL      0.124690
     48 N5         -6.4370   -0.8230   -1.5550 n         1 MOL     -0.179976
     49 C16        -6.3430   -2.1930   -2.1080 c3        1 MOL     -0.114320
     50 C17        -6.4510   -3.2840   -1.0860 c         1 MOL      0.527660
     51 O10        -7.0140   -4.3350   -1.4360 o         1 MOL     -0.587158
     52 C18        -5.1140   -2.3000   -2.9690 c3        1 MOL     -0.012010
     53 C19        -3.7940   -2.3830   -2.3130 c         1 MOL      0.387665
     54 N6         -2.7640   -2.6320   -3.1020 n         1 MOL     -0.576245
     55 O11        -3.5890   -2.0910   -1.1460 o         1 MOL     -0.395699
     56 H20        -5.6960   -0.1660   -1.7700 hn        1 MOL      0.276783
     57 H21        -7.1410   -2.2590   -2.8460 h1        1 MOL      0.098715
     58 H22        -5.1360   -1.4740   -3.6790 hc        1 MOL      0.030596
     59 H23        -5.2130   -3.1870   -3.6000 hc        1 MOL      0.030596
     60 H24        -2.8900   -2.8040   -4.0900 hn        1 MOL      0.314545
     61 H25        -1.8010   -2.6920   -2.7920 hn        1 MOL      0.314545
     62 N7         -6.0650   -3.0540    0.1380 n         1 MOL     -0.178113
     63 C20        -6.1400   -4.0180    1.3180 c3        1 MOL     -0.370025
     64 C21        -4.7990   -4.6910    1.6430 c         1 MOL      0.616409
     65 O12        -4.8400   -5.6500    2.3900 o         1 MOL     -0.572069
     66 H26        -5.6110   -2.1710    0.3000 hn        1 MOL      0.181806
     67 H27        -6.8180   -4.7870    0.9620 h1        1 MOL      0.164791
     68 H28        -6.5310   -3.4780    2.1700 h1        1 MOL      0.164791
     69 N8         -3.6150   -4.1940    1.1000 n         1 MOL     -0.179299
     70 C22        -2.1950   -4.7470    1.3100 c3        1 MOL     -0.465080
     71 C23        -1.1530   -3.6230    1.5050 c         1 MOL      0.789201
     72 O13        -1.3870   -2.5540    0.9830 o         1 MOL     -0.614372
     73 C24        -1.7620   -5.5440    0.0200 c3        1 MOL      0.698001
     74 C25        -2.4170   -6.8830   -0.1650 c3        1 MOL     -0.388322
     75 O14        -1.7430   -4.7770   -1.1390 oh        1 MOL     -0.591756
     76 H29        -3.6850   -3.3640    0.5360 hn        1 MOL      0.100973
     77 H30        -2.1970   -5.4370    2.1510 h1        1 MOL      0.134619
     78 H31        -0.7580   -5.9160    0.2210 h1        1 MOL     -0.081342
     79 H32        -1.9780   -3.8700   -0.9020 ho        1 MOL      0.276265
     80 H33        -1.7630   -7.4680   -0.8130 hc        1 MOL      0.083455
     81 H34        -2.5060   -7.4740    0.7450 hc        1 MOL      0.083455
     82 H35        -3.3820   -6.7540   -0.6520 hc        1 MOL      0.083455
     83 N9         -0.0840   -3.8330    2.2840 n         1 MOL     -0.512901
     84 C26         1.0900   -2.9090    2.2130 c3        1 MOL     -0.047626
     85 C27         1.8180   -2.9900    0.9150 c         1 MOL      0.529240
     86 O15         2.1620   -4.0950    0.4850 o         1 MOL     -0.572770
     87 C28         2.0280   -3.1170    3.4460 c3        1 MOL      0.295436
     88 C29         1.3400   -2.7360    4.8320 c3        1 MOL      0.221048
     89 C30         3.3720   -2.3060    3.4350 c3        1 MOL     -0.559455
     90 C31         1.7360   -3.7540    5.8720 c3        1 MOL     -0.228321
     91 H36         0.0170   -4.7350    2.7140 hn        1 MOL      0.278032
     92 H37         0.6240   -1.9290    2.2320 h1        1 MOL      0.002712
     93 H38         2.3430   -4.1570    3.4330 hc        1 MOL     -0.018313
     94 H39         0.2510   -2.8060    4.7490 hc        1 MOL     -0.047312
     95 H40         1.4910   -1.6970    5.1100 hc        1 MOL     -0.047312
     96 H41         3.9120   -2.5490    2.5240 hc        1 MOL      0.129494
     97 H42         3.1490   -1.2410    3.5070 hc        1 MOL      0.129494
     98 H43         3.8970   -2.5600    4.3570 hc        1 MOL      0.129494
     99 H44         1.3440   -3.5410    6.8660 hc        1 MOL      0.036448
    100 H45         1.5170   -4.7720    5.5590 hc        1 MOL      0.036448
    101 H46         2.8120   -3.6220    5.9880 hc        1 MOL      0.036448
    102 N10         2.0800   -1.9050    0.1320 n         1 MOL     -0.361593
    103 C32         2.7810   -1.8790   -1.1100 c3        1 MOL      0.110297
    104 C33         4.2240   -1.2220   -0.9060 c         1 MOL      0.504870
    105 O16         4.4090   -0.3790   -0.1070 o         1 MOL     -0.401112
    106 C34         1.9490   -1.1150   -2.1410 c3        1 MOL     -0.342415
    107 C35         0.5580   -1.6350   -2.2600 c         1 MOL      0.825553
    108 O17        -0.3780   -0.9760   -1.6350 o         1 MOL     -0.686465
    109 O18         0.2220   -2.4970   -3.0950 o         1 MOL     -0.686465
    110 H47         1.7480   -1.0120    0.4870 hn        1 MOL      0.264118
    111 H48         2.9850   -2.8730   -1.4900 h1        1 MOL      0.044547
    112 H49         2.4440   -1.2290   -3.1070 hc        1 MOL      0.084834
    113 H50         1.8360   -0.1000   -1.7730 hc        1 MOL      0.084834
    114 N11         5.2360   -1.5550   -1.6690 n         1 MOL     -0.538250
    115 C36         6.5920   -1.2740   -1.3230 c3        1 MOL      0.250785
    116 C37         6.8230    0.2860   -1.2550 c         1 MOL      0.337020
    117 O19         7.5440    0.7460   -0.3410 o         1 MOL     -0.462123
    118 C38         7.4620   -2.0230   -2.3040 c3        1 MOL     -0.387005
    119 C39         8.9300   -1.9140   -1.9000 ca        1 MOL      0.172844
    120 C40         9.4090   -2.5250   -0.7460 ca        1 MOL     -0.182675
    121 C41         9.8730   -1.2090   -2.7000 ca        1 MOL     -0.182675
    122 C42        10.7370   -2.3370   -0.2840 ca        1 MOL     -0.110699
    123 C43        11.1620   -0.9670   -2.2490 ca        1 MOL     -0.110699
    124 C44        11.5930   -1.4920   -1.0590 ca        1 MOL     -0.123699
    125 H51         5.0910   -2.2580   -2.3870 hn        1 MOL      0.298748
    126 H52         6.6290   -1.7070   -0.3270 h1        1 MOL      0.107961
    127 H53         7.4470   -1.6700   -3.3460 hc        1 MOL      0.128012
    128 H54         7.2230   -3.0880   -2.3140 hc        1 MOL      0.128012
    129 H55         8.6640   -3.0580   -0.1750 ha        1 MOL      0.108559
    130 H56         9.5150   -0.7460   -3.6050 ha        1 MOL      0.108559
    131 H57        11.0040   -2.5820    0.7300 ha        1 MOL      0.117516
    132 H58        11.8030   -0.2930   -2.8060 ha        1 MOL      0.117516
    133 H59        12.5260   -1.1590   -0.6240 ha        1 MOL      0.106829
    134 N12         6.1770    1.1070   -2.1470 n         1 MOL     -0.181727
    135 C45         6.0950    2.5940   -1.9870 c3        1 MOL      0.030637
    136 C46         5.5270    3.0630   -0.6760 c         1 MOL      0.216402
    137 O20         5.8570    4.2120   -0.2760 o         1 MOL     -0.511155
    138 C47         5.3630    3.1620   -3.1820 c3        1 MOL      0.019200
    139 C48         5.3100    2.0180   -4.2180 c3        1 MOL     -0.197174
    140 C49         5.2810    0.8630   -3.2660 c3        1 MOL      0.116468
    141 H60         7.1180    2.9700   -2.0120 h1        1 MOL      0.084810
    142 H61         4.3430    3.4670   -2.9500 hc        1 MOL      0.036639
    143 H62         5.9250    4.0280   -3.5050 hc        1 MOL      0.036639
    144 H63         4.3890    2.1460   -4.7880 hc        1 MOL      0.071585
    145 H64         6.2090    2.1120   -4.8370 hc        1 MOL      0.071585
    146 H65         4.3130    0.7650   -2.7810 h1        1 MOL      0.014298
    147 H66         5.4910   -0.0430   -3.8520 h1        1 MOL      0.014298
    148 N13         4.7300    2.2330   -0.0210 n         1 MOL      0.040403
    149 C50         4.1760    2.5330    1.3000 c3        1 MOL     -0.080787
    150 C51         4.9880    1.8900    2.4850 c         1 MOL      0.351282
    151 O21         5.0350    2.4490    3.6280 o         1 MOL     -0.537665
    152 C52         2.7080    2.0230    1.4360 c3        1 MOL      0.005211
    153 C53         1.6380    2.5530    0.4940 c3        1 MOL     -0.104994
    154 C54         0.2710    1.7910    0.6750 c         1 MOL      0.598572
    155 O22        -0.7120    2.2320    0.0500 o         1 MOL     -0.689907
    156 O23         0.2090    0.6440    1.2330 o         1 MOL     -0.689907
    157 H67         4.5630    1.2620   -0.2790 hn        1 MOL      0.102628
    158 H68         4.1420    3.6160    1.4100 h1        1 MOL      0.119961
    159 H69         2.3220    2.0400    2.4490 hc        1 MOL      0.015067
    160 H70         2.7190    0.9510    1.2440 hc        1 MOL      0.015067
    161 H71         1.9800    2.4130   -0.5290 hc        1 MOL      0.051910
    162 H72         1.6610    3.6350    0.5940 hc        1 MOL      0.051910
    163 N14         5.7960    0.8160    2.1630 n         1 MOL      0.001040
    164 C55         6.8110    0.2710    2.9870 c3        1 MOL     -0.120776
    165 H73         7.7520    0.2500    2.4370 h1        1 MOL      0.051891
    166 H74         6.9260    0.8880    3.8780 h1        1 MOL      0.051891
    167 H75         6.5390   -0.7430    3.2780 h1        1 MOL      0.051891
    168 H76         5.5470    0.4480    1.2590 hn        1 MOL      0.024951
    169 Ca1        -2.0930   -0.0400   -0.0450 Ca        1 MOL      1.701254
    170 O24        -1.9120   -0.1780    2.6110 oh        1 MOL     -0.777763
    171 H77        -2.2060    0.1110    3.4740 ho        1 MOL      0.382721
    172 H78        -1.0290    0.2010    2.5270 ho        1 MOL      0.382721
    173 O25        -4.5220   -0.7340    1.3980 oh        1 MOL     -0.777763
    174 H79        -4.8980   -0.9710    2.2510 ho        1 MOL      0.382721
    175 H80        -4.4140    0.2170    1.4360 ho        1 MOL      0.382721
@<TRIPOS>BOND
     1    1    2 1   
     2    1    4 1   
     3    1    5 1   
     4    1    6 1   
     5    2    3 2   
     6    2    7 1   
     7    7    8 1   
     8    7   15 1   
     9    8    9 1   
    10    8   11 1   
    11    8   16 1   
    12    9   10 2   
    13    9   19 1   
    14   11   12 1   
    15   11   17 1   
    16   11   18 1   
    17   12   13 1   
    18   12   14 1   
    19   19   20 1   
    20   19   24 1   
    21   20   21 1   
    22   20   23 1   
    23   20   25 1   
    24   21   22 2   
    25   21   29 1   
    26   23   26 1   
    27   23   27 1   
    28   23   28 1   
    29   29   30 1   
    30   29   37 1   
    31   30   31 1   
    32   30   33 1   
    33   30   38 1   
    34   31   32 2   
    35   31   41 1   
    36   33   34 1   
    37   33   39 1   
    38   33   40 1   
    39   34   35 1   
    40   34   36 1   
    41   41   42 1   
    42   41   45 1   
    43   42   43 1   
    44   42   46 1   
    45   42   47 1   
    46   43   44 2   
    47   43   48 1   
    48   48   49 1   
    49   48   56 1   
    50   49   50 1   
    51   49   52 1   
    52   49   57 1   
    53   50   51 2   
    54   50   62 1   
    55   52   53 1   
    56   52   58 1   
    57   52   59 1   
    58   53   54 1   
    59   53   55 2   
    60   54   60 1   
    61   54   61 1   
    62   62   63 1   
    63   62   66 1   
    64   63   64 1   
    65   63   67 1   
    66   63   68 1   
    67   64   65 2   
    68   64   69 1   
    69   69   70 1   
    70   69   76 1   
    71   70   71 1   
    72   70   73 1   
    73   70   77 1   
    74   71   72 2   
    75   71   83 1   
    76   73   74 1   
    77   73   75 1   
    78   73   78 1   
    79   74   80 1   
    80   74   81 1   
    81   74   82 1   
    82   75   79 1   
    83   83   84 1   
    84   83   91 1   
    85   84   85 1   
    86   84   87 1   
    87   84   92 1   
    88   85   86 2   
    89   85  102 1   
    90   87   88 1   
    91   87   89 1   
    92   87   93 1   
    93   88   90 1   
    94   88   94 1   
    95   88   95 1   
    96   89   96 1   
    97   89   97 1   
    98   89   98 1   
    99   90   99 1   
   100   90  100 1   
   101   90  101 1   
   102  102  103 1   
   103  102  110 1   
   104  103  104 1   
   105  103  106 1   
   106  103  111 1   
   107  104  105 2   
   108  104  114 1   
   109  106  107 1   
   110  106  112 1   
   111  106  113 1   
   112  107  108 1   
   113  107  109 1   
   114  114  115 1   
   115  114  125 1   
   116  115  116 1   
   117  115  118 1   
   118  115  126 1   
   119  116  117 2   
   120  116  134 1   
   121  118  119 1   
   122  118  127 1   
   123  118  128 1   
   124  119  120 ar  
   125  119  121 ar  
   126  120  122 ar  
   127  120  129 1   
   128  121  123 ar  
   129  121  130 1   
   130  122  124 ar  
   131  122  131 1   
   132  123  124 ar  
   133  123  132 1   
   134  124  133 1   
   135  134  135 1   
   136  134  140 1   
   137  135  136 1   
   138  135  138 1   
   139  135  141 1   
   140  136  137 2   
   141  136  148 1   
   142  138  139 1   
   143  138  142 1   
   144  138  143 1   
   145  139  140 1   
   146  139  144 1   
   147  139  145 1   
   148  140  146 1   
   149  140  147 1   
   150  148  149 1   
   151  148  157 1   
   152  149  150 1   
   153  149  152 1   
   154  149  158 1   
   155  150  151 2   
   156  150  163 1   
   157  152  153 1   
   158  152  159 1   
   159  152  160 1   
   160  153  154 1   
   161  153  161 1   
   162  153  162 1   
   163  154  155 1   
   164  154  156 1   
   165  163  164 1   
   166  163  168 1   
   167  164  165 1   
   168  164  166 1   
   169  164  167 1   
   170  170  171 1   
   171  170  172 1   
   172  173  174 1   
   173  173  175 1   
@<TRIPOS>SUBSTRUCTURE
     1 MOL         1 TEMP              0 ****  ****    0 ROOT
