@<TRIPOS>MOLECULE
MOL
  189   185     1     0     0
SMALL
resp


@<TRIPOS>ATOM
      1 C1         -0.6040    3.5350    5.2090 c3        1 MOL     -0.156248
      2 C2         -0.8960    2.7330    3.9850 c         1 MOL      0.666216
      3 O1         -0.0030    2.4480    3.1580 o         1 MOL     -0.576668
      4 H1         -1.2560    4.4080    5.2350 hc        1 MOL      0.039878
      5 H2         -0.7790    2.9250    6.0950 hc        1 MOL      0.039878
      6 H3          0.4370    3.8600    5.1920 hc        1 MOL      0.039878
      7 N1         -2.1560    2.3460    3.7660 n         1 MOL     -0.610456
      8 C3         -2.5660    1.8330    2.4430 c3        1 MOL      0.056187
      9 C4         -3.0030    3.0380    1.6380 c         1 MOL      0.457784
     10 O2         -4.0290    3.6970    1.9040 o         1 MOL     -0.521786
     11 C5         -3.7040    0.7790    2.5870 c3        1 MOL     -0.061300
     12 C6         -4.3580    0.4220    1.2190 c         1 MOL      0.530602
     13 O3         -3.7890    0.6400    0.0760 o         1 MOL     -0.546282
     14 O4         -5.5070   -0.0120    1.4500 o         1 MOL     -0.546282
     15 H4         -2.8530    2.8240    4.3270 hn        1 MOL      0.354989
     16 H5         -1.7380    1.4290    1.8670 h1        1 MOL      0.006768
     17 H6         -4.4480    1.1970    3.2680 hc        1 MOL      0.032487
     18 H7         -3.3560   -0.1410    3.0580 hc        1 MOL      0.032487
     19 N2         -2.0760    3.5120    0.7410 n         1 MOL     -0.352443
     20 C7         -2.2120    4.8390    0.0840 c3        1 MOL     -0.213105
     21 C8         -2.9620    4.8400   -1.1860 c         1 MOL      0.580536
     22 O5         -3.2860    5.8870   -1.7140 o         1 MOL     -0.570292
     23 C9         -0.8270    5.4780    0.0480 c3        1 MOL      0.113142
     24 C10        -0.4310    5.8560    1.4770 c3        1 MOL      0.011361
     25 C11         0.9890    6.4880    1.6130 c3        1 MOL     -0.111315
     26 C12         1.0710    7.7710    0.7060 c3        1 MOL     -0.088172
     27 N3          2.3490    8.4730    0.8530 n4        1 MOL     -0.217518
     28 H8         -1.3200    2.8900    0.4990 hn        1 MOL      0.400272
     29 H9         -2.8060    5.4800    0.7380 h1        1 MOL      0.131242
     30 H10        -0.8400    6.3650   -0.5790 hc        1 MOL     -0.015313
     31 H11        -0.1020    4.7470   -0.2960 hc        1 MOL     -0.015313
     32 H12        -0.3030    4.9510    2.0710 hc        1 MOL      0.018385
     33 H13        -1.1330    6.6350    1.8000 hc        1 MOL      0.018385
     34 H14         1.6530    5.6440    1.4400 hc        1 MOL      0.059211
     35 H15         1.1110    6.7620    2.6640 hc        1 MOL      0.059211
     36 H16         0.2410    8.3820    1.0570 hx        1 MOL      0.126715
     37 H17         0.9120    7.4680   -0.3300 hx        1 MOL      0.126715
     38 H18         2.5560    9.3360    0.3680 hn        1 MOL      0.292173
     39 H19         2.5850    8.7540    1.7950 hn        1 MOL      0.292173
     40 H20         3.0780    7.7900    0.7530 hn        1 MOL      0.292173
     41 N4         -3.4320    3.6560   -1.6190 n         1 MOL     -0.218853
     42 C13        -4.4340    3.5290   -2.6820 c3        1 MOL     -0.058015
     43 C14        -5.7490    2.8650   -2.2930 c         1 MOL      0.438867
     44 O6         -6.7470    3.0530   -3.0620 o         1 MOL     -0.519942
     45 C15        -3.8290    3.0640   -4.0460 c3        1 MOL     -0.143939
     46 C16        -2.8040    1.9750   -3.9960 c         1 MOL      0.740314
     47 O7         -3.0290    1.0170   -3.2330 o         1 MOL     -0.697309
     48 O8         -1.7050    2.0240   -4.6260 o         1 MOL     -0.697309
     49 H21        -3.1520    2.8380   -1.0890 hn        1 MOL      0.034918
     50 H22        -4.7340    4.5440   -2.9100 h1        1 MOL      0.113288
     51 H23        -3.3490    3.9250   -4.5190 hc        1 MOL      0.048306
     52 H24        -4.6500    2.8410   -4.7280 hc        1 MOL      0.048306
     53 N5         -5.8810    2.1490   -1.1580 n         1 MOL     -0.192574
     54 C17        -7.2390    1.7600   -0.6770 c3        1 MOL     -0.173427
     55 C18        -7.6460    0.4700   -1.2610 c         1 MOL      0.535772
     56 O9         -8.7510    0.3510   -1.7950 o         1 MOL     -0.572200
     57 H25        -5.1190    2.0180   -0.5020 hn        1 MOL      0.240837
     58 H26        -7.9020    2.5760   -0.9570 h1        1 MOL      0.093806
     59 H27        -7.2200    1.6230    0.3970 h1        1 MOL      0.093806
     60 N6         -6.7310   -0.4850   -1.2380 n         1 MOL     -0.113514
     61 C19        -6.9880   -1.8590   -1.7450 c3        1 MOL      0.078785
     62 C20        -6.9390   -2.9240   -0.5830 c         1 MOL      0.380224
     63 O10        -7.2380   -4.0720   -0.8440 o         1 MOL     -0.500470
     64 C21        -6.0100   -2.2410   -2.8650 c3        1 MOL     -0.241653
     65 C22        -4.5400   -2.2420   -2.4420 c         1 MOL      0.786135
     66 O11        -3.6130   -1.9500   -3.1910 o         1 MOL     -0.750782
     67 O12        -4.2390   -2.4000   -1.2470 o         1 MOL     -0.750782
     68 H28        -5.8170   -0.3420   -0.8240 hn        1 MOL     -0.019174
     69 H29        -7.9910   -1.9440   -2.1600 h1        1 MOL      0.074011
     70 H30        -6.1050   -1.5090   -3.6640 hc        1 MOL      0.082316
     71 H31        -6.2130   -3.2770   -3.1550 hc        1 MOL      0.082316
     72 N7         -6.6230   -2.5730    0.6580 n         1 MOL     -0.303472
     73 C23        -6.5360   -3.5440    1.7880 c3        1 MOL      0.060361
     74 C24        -5.1500   -4.2390    2.0080 c         1 MOL      0.483936
     75 O13        -4.9530   -5.1690    2.7400 o         1 MOL     -0.577952
     76 H32        -6.4370   -1.6080    0.8730 hn        1 MOL      0.188758
     77 H33        -7.3260   -4.2870    1.7100 h1        1 MOL      0.048902
     78 H34        -6.8140   -3.0610    2.7210 h1        1 MOL      0.048902
     79 N8         -4.1320   -3.6950    1.3590 n         1 MOL     -0.375394
     80 C25        -2.7860   -4.2640    1.3680 c3        1 MOL     -0.018865
     81 C26        -1.7140   -3.2590    1.2650 c         1 MOL      0.633451
     82 O14        -1.8400   -2.2330    0.6840 o         1 MOL     -0.659887
     83 C27        -2.6590   -5.3180    0.1820 c3        1 MOL      0.497386
     84 C28        -3.0690   -6.7470    0.4470 c3        1 MOL     -0.441441
     85 O15        -3.5520   -4.9580   -0.8180 oh        1 MOL     -0.647539
     86 H35        -4.4010   -2.9340    0.7570 hn        1 MOL      0.308060
     87 H36        -2.5870   -4.7690    2.3020 h1        1 MOL      0.075563
     88 H37        -1.5970   -5.3270   -0.0620 h1        1 MOL     -0.071159
     89 H38        -3.5300   -4.0160   -0.9960 ho        1 MOL      0.478148
     90 H39        -3.0620   -7.3240   -0.4760 hc        1 MOL      0.109306
     91 H40        -2.4010   -7.1020    1.2320 hc        1 MOL      0.109306
     92 H41        -4.0570   -6.8200    0.9110 hc        1 MOL      0.109306
     93 N9         -0.6270   -3.4830    1.9670 n         1 MOL     -0.621875
     94 C29         0.5450   -2.6680    2.0840 c3        1 MOL      0.015487
     95 C30         1.8070   -3.3220    1.4350 c         1 MOL      0.671665
     96 O16         2.3260   -4.3570    1.8350 o         1 MOL     -0.564290
     97 C31         0.7440   -2.2910    3.6330 c3        1 MOL     -0.151322
     98 C32        -0.4330   -1.4810    4.1190 c3        1 MOL      0.125146
     99 C33         2.0560   -1.6540    3.9310 c3        1 MOL     -0.152835
    100 C34        -0.3420   -1.1060    5.5960 c3        1 MOL     -0.250079
    101 H42        -0.6850   -4.2950    2.5760 hn        1 MOL      0.303303
    102 H43         0.3410   -1.6990    1.6340 h1        1 MOL      0.112405
    103 H44         0.7030   -3.2100    4.2220 hc        1 MOL      0.066511
    104 H45        -1.4310   -1.8900    4.0100 hc        1 MOL      0.051218
    105 H46        -0.4440   -0.5530    3.5520 hc        1 MOL      0.051218
    106 H47         2.2910   -0.7520    3.3720 hc        1 MOL      0.038137
    107 H48         2.1200   -1.3250    4.9710 hc        1 MOL      0.038137
    108 H49         2.8640   -2.3530    3.7060 hc        1 MOL      0.038137
    109 H50        -0.2860   -2.0520    6.1300 hc        1 MOL      0.060045
    110 H51         0.4940   -0.4470    5.8320 hc        1 MOL      0.060045
    111 H52        -1.3210   -0.6910    5.8260 hc        1 MOL      0.060045
    112 N10         2.2650   -2.6930    0.3170 n         1 MOL     -0.420556
    113 C35         3.5260   -3.0260   -0.4550 c3        1 MOL     -0.097543
    114 C36         4.7610   -2.3820    0.2410 c         1 MOL      0.379911
    115 O17         4.6610   -1.4970    1.0890 o         1 MOL     -0.317587
    116 C37         3.4850   -2.7020   -1.9410 c3        1 MOL      0.307894
    117 C38         2.4320   -3.3760   -2.7620 c3        1 MOL     -0.395896
    118 O18         3.2430   -1.3320   -2.0910 oh        1 MOL     -0.610370
    119 H53         1.6760   -1.9120    0.0610 hn        1 MOL      0.331670
    120 H54         3.6280   -4.1060   -0.3730 h1        1 MOL      0.095000
    121 H55         4.4490   -2.8790   -2.4110 h1        1 MOL      0.018401
    122 H56         2.3050   -1.1620   -1.9990 ho        1 MOL      0.412048
    123 H57         1.4460   -3.0070   -2.4590 hc        1 MOL      0.118874
    124 H58         2.5480   -3.0030   -3.7790 hc        1 MOL      0.118874
    125 H59         2.4590   -4.4680   -2.7850 hc        1 MOL      0.118874
    126 N11         6.0170   -2.7950   -0.1080 n         1 MOL     -0.257877
    127 C39         7.2540   -2.1910    0.4170 c3        1 MOL     -0.291071
    128 C40         7.3360   -0.6910    0.2740 c         1 MOL      0.317093
    129 O19         7.7410    0.0450    1.1710 o         1 MOL     -0.452123
    130 C41         8.4830   -2.8030   -0.3170 c3        1 MOL      0.373606
    131 C42         8.8000   -4.2620    0.0930 c3        1 MOL     -0.516454
    132 O20         8.4140   -2.7070   -1.7650 oh        1 MOL     -0.589329
    133 H60         6.0390   -3.6280   -0.6930 hn        1 MOL      0.248144
    134 H61         7.3230   -2.4620    1.4760 h1        1 MOL      0.208467
    135 H62         9.3430   -2.1690   -0.0950 h1        1 MOL      0.040901
    136 H63         9.3270   -2.5230   -2.0050 ho        1 MOL      0.300599
    137 H64         8.8020   -4.2900    1.1770 hc        1 MOL      0.153607
    138 H65         8.0530   -4.9340   -0.3280 hc        1 MOL      0.153607
    139 H66         9.7900   -4.5010   -0.2980 hc        1 MOL      0.153607
    140 N12         6.8650   -0.1410   -0.8480 n         1 MOL     -0.205517
    141 C43         6.7600    1.3470   -1.0770 c3        1 MOL     -0.113287
    142 C44         5.8650    2.0100   -0.0150 c         1 MOL      0.427773
    143 O21         6.2620    3.0450    0.4910 o         1 MOL     -0.512063
    144 C45         6.3670    1.6470   -2.5000 c3        1 MOL     -0.145648
    145 C46         7.6510    1.5380   -3.4020 c3        1 MOL     -0.002604
    146 C47         8.1140    0.1510   -3.9140 c3        1 MOL     -0.185756
    147 C48         9.5670    0.3430   -4.3100 c3        1 MOL      0.070503
    148 N13        10.3550   -0.8770   -4.6840 n4        1 MOL     -0.303805
    149 H67         6.4860   -0.7520   -1.5690 hn        1 MOL      0.299204
    150 H68         7.7140    1.8260   -0.8840 h1        1 MOL      0.120934
    151 H69         6.0440    2.6810   -2.4610 hc        1 MOL      0.087494
    152 H70         5.5970    1.0050   -2.9360 hc        1 MOL      0.087494
    153 H71         8.4890    2.0460   -2.9100 hc        1 MOL      0.045546
    154 H72         7.3510    2.1540   -4.2460 hc        1 MOL      0.045546
    155 H73         7.4520   -0.1560   -4.7330 hc        1 MOL      0.078215
    156 H74         7.9630   -0.6720   -3.2170 hc        1 MOL      0.078215
    157 H75        10.0510    0.9150   -3.5140 hx        1 MOL      0.064982
    158 H76         9.5790    1.0460   -5.1430 hx        1 MOL      0.064982
    159 H77         9.9620   -1.2960   -5.5110 hn        1 MOL      0.286326
    160 H78        11.3280   -0.6100   -4.7150 hn        1 MOL      0.286326
    161 H79        10.2650   -1.5090   -3.9090 hn        1 MOL      0.286326
    162 N14         4.7820    1.3520    0.3680 n         1 MOL     -0.164434
    163 C49         3.9080    1.8110    1.3810 c3        1 MOL     -0.076059
    164 C50         4.5200    1.6000    2.8340 c         1 MOL      0.492259
    165 O22         4.4700    2.4980    3.6550 o         1 MOL     -0.569113
    166 C51         2.5230    1.1590    1.2120 c3        1 MOL      0.307665
    167 C52         1.7810    1.7150    0.0060 c3        1 MOL     -0.072302
    168 C53         0.5360    0.8430   -0.3560 c         1 MOL      0.623297
    169 O23         0.5710   -0.4140   -0.4820 o         1 MOL     -0.730690
    170 O24        -0.6180    1.3920   -0.5400 o         1 MOL     -0.730690
    171 H80         4.5990    0.3900    0.0820 hn        1 MOL      0.082043
    172 H81         3.7720    2.8870    1.4000 h1        1 MOL      0.044052
    173 H82         1.9190    1.3210    2.1110 hc        1 MOL     -0.041905
    174 H83         2.6240    0.0850    1.0400 hc        1 MOL     -0.041905
    175 H84         2.4390    1.8020   -0.8560 hc        1 MOL     -0.009934
    176 H85         1.4450    2.7220    0.2330 hc        1 MOL     -0.009934
    177 N15         5.1630    0.4540    3.0520 n         1 MOL     -0.092821
    178 C54         5.7340    0.1400    4.3630 c3        1 MOL     -0.199857
    179 H86         6.7060   -0.3340    4.2310 h1        1 MOL      0.082062
    180 H87         5.8530    1.0590    4.9370 h1        1 MOL      0.082062
    181 H88         5.0690   -0.5390    4.8960 h1        1 MOL      0.082062
    182 H89         5.3170   -0.1220    2.2420 hn        1 MOL      0.129738
    183 Ca1        -1.9890   -0.6300   -1.4570 Ca        1 MOL      1.771957
    184 O25        -1.0830   -3.2820   -2.1630 oh        1 MOL     -0.858292
    185 H90        -0.7200   -2.9890   -2.9890 ho        1 MOL      0.397570
    186 H91        -1.7500   -3.9240   -2.4040 ho        1 MOL      0.397570
    187 O26        -0.4610   -0.0920   -3.5270 oh        1 MOL     -0.858292
    188 H92         0.3640    0.2960   -3.8310 ho        1 MOL      0.397570
    189 H93        -1.1210    0.5530   -3.7680 ho        1 MOL      0.397570
@<TRIPOS>BOND
     1    1    2 1   
     2    1    4 1   
     3    1    5 1   
     4    1    6 1   
     5    2    3 2   
     6    2    7 1   
     7    7    8 1   
     8    7   15 1   
     9    8    9 1   
    10    8   11 1   
    11    8   16 1   
    12    9   10 2   
    13    9   19 1   
    14   11   12 1   
    15   11   17 1   
    16   11   18 1   
    17   12   13 1   
    18   12   14 1   
    19   19   20 1   
    20   19   28 1   
    21   20   21 1   
    22   20   23 1   
    23   20   29 1   
    24   21   22 2   
    25   21   41 1   
    26   23   24 1   
    27   23   30 1   
    28   23   31 1   
    29   24   25 1   
    30   24   32 1   
    31   24   33 1   
    32   25   26 1   
    33   25   34 1   
    34   25   35 1   
    35   26   27 1   
    36   26   36 1   
    37   26   37 1   
    38   27   38 1   
    39   27   39 1   
    40   27   40 1   
    41   41   42 1   
    42   41   49 1   
    43   42   43 1   
    44   42   45 1   
    45   42   50 1   
    46   43   44 2   
    47   43   53 1   
    48   45   46 1   
    49   45   51 1   
    50   45   52 1   
    51   46   47 1   
    52   46   48 1   
    53   53   54 1   
    54   53   57 1   
    55   54   55 1   
    56   54   58 1   
    57   54   59 1   
    58   55   56 2   
    59   55   60 1   
    60   60   61 1   
    61   60   68 1   
    62   61   62 1   
    63   61   64 1   
    64   61   69 1   
    65   62   63 2   
    66   62   72 1   
    67   64   65 1   
    68   64   70 1   
    69   64   71 1   
    70   65   66 1   
    71   65   67 1   
    72   72   73 1   
    73   72   76 1   
    74   73   74 1   
    75   73   77 1   
    76   73   78 1   
    77   74   75 2   
    78   74   79 1   
    79   79   80 1   
    80   79   86 1   
    81   80   81 1   
    82   80   83 1   
    83   80   87 1   
    84   81   82 2   
    85   81   93 1   
    86   83   84 1   
    87   83   85 1   
    88   83   88 1   
    89   84   90 1   
    90   84   91 1   
    91   84   92 1   
    92   85   89 1   
    93   93   94 1   
    94   93  101 1   
    95   94   95 1   
    96   94   97 1   
    97   94  102 1   
    98   95   96 2   
    99   95  112 1   
   100   97   98 1   
   101   97   99 1   
   102   97  103 1   
   103   98  100 1   
   104   98  104 1   
   105   98  105 1   
   106   99  106 1   
   107   99  107 1   
   108   99  108 1   
   109  100  109 1   
   110  100  110 1   
   111  100  111 1   
   112  112  113 1   
   113  112  119 1   
   114  113  114 1   
   115  113  116 1   
   116  113  120 1   
   117  114  115 2   
   118  114  126 1   
   119  116  117 1   
   120  116  118 1   
   121  116  121 1   
   122  117  123 1   
   123  117  124 1   
   124  117  125 1   
   125  118  122 1   
   126  126  127 1   
   127  126  133 1   
   128  127  128 1   
   129  127  130 1   
   130  127  134 1   
   131  128  129 2   
   132  128  140 1   
   133  130  131 1   
   134  130  132 1   
   135  130  135 1   
   136  131  137 1   
   137  131  138 1   
   138  131  139 1   
   139  132  136 1   
   140  140  141 1   
   141  140  149 1   
   142  141  142 1   
   143  141  144 1   
   144  141  150 1   
   145  142  143 2   
   146  142  162 1   
   147  144  145 1   
   148  144  151 1   
   149  144  152 1   
   150  145  146 1   
   151  145  153 1   
   152  145  154 1   
   153  146  147 1   
   154  146  155 1   
   155  146  156 1   
   156  147  148 1   
   157  147  157 1   
   158  147  158 1   
   159  148  159 1   
   160  148  160 1   
   161  148  161 1   
   162  162  163 1   
   163  162  171 1   
   164  163  164 1   
   165  163  166 1   
   166  163  172 1   
   167  164  165 2   
   168  164  177 1   
   169  166  167 1   
   170  166  173 1   
   171  166  174 1   
   172  167  168 1   
   173  167  175 1   
   174  167  176 1   
   175  168  169 1   
   176  168  170 1   
   177  177  178 1   
   178  177  182 1   
   179  178  179 1   
   180  178  180 1   
   181  178  181 1   
   182  184  185 1   
   183  184  186 1   
   184  187  188 1   
   185  187  189 1   
@<TRIPOS>SUBSTRUCTURE
     1 MOL         1 TEMP              0 ****  ****    0 ROOT
