@<TRIPOS>MOLECULE
MOL
  179   176     1     0     0
SMALL
resp


@<TRIPOS>ATOM
      1 C1          2.6980    3.4180    4.0510 c3        1 MOL     -0.331925
      2 C2          1.7090    3.1870    2.8300 c         1 MOL      0.636007
      3 O1          2.1460    3.1560    1.7040 o         1 MOL     -0.584942
      4 H1          3.6860    3.6810    3.6730 hc        1 MOL      0.090069
      5 H2          2.3230    4.2270    4.6770 hc        1 MOL      0.090069
      6 H3          2.7680    2.5040    4.6410 hc        1 MOL      0.090069
      7 N1          0.3970    2.8650    3.0710 n         1 MOL     -0.760989
      8 C3         -0.7560    2.8240    2.0900 c3        1 MOL      0.261823
      9 C4         -1.2070    4.2070    1.6570 c         1 MOL      0.624419
     10 O2         -2.3630    4.5050    1.8220 o         1 MOL     -0.464758
     11 C5         -1.8910    1.9030    2.5860 c3        1 MOL     -0.334998
     12 C6         -2.9480    1.4970    1.5030 c         1 MOL      0.786678
     13 O3         -4.0630    1.0700    1.9020 o         1 MOL     -0.675509
     14 O4         -2.6070    1.5640    0.2870 o         1 MOL     -0.675509
     15 H4          0.0460    2.7100    4.0080 hn        1 MOL      0.352141
     16 H5         -0.2560    2.3440    1.2520 h1        1 MOL     -0.000824
     17 H6         -2.4090    2.4150    3.4050 hc        1 MOL      0.073948
     18 H7         -1.4230    0.9690    2.8840 hc        1 MOL      0.073948
     19 N2         -0.2990    4.9780    0.9880 n         1 MOL     -0.658228
     20 C7         -0.5990    6.3190    0.4040 c3        1 MOL      0.043836
     21 C8         -1.9120    6.2190   -0.4620 c         1 MOL      0.469954
     22 O5         -2.8330    7.0750   -0.4380 o         1 MOL     -0.538680
     23 C9          0.5110    6.9310   -0.4630 c3        1 MOL     -0.302999
     24 C10         1.6570    7.3560    0.4120 c3        1 MOL      0.297559
     25 C11         2.8890    7.8870   -0.4340 c3        1 MOL     -0.163263
     26 C12         3.8940    8.3940    0.6150 c3        1 MOL     -0.079154
     27 N3          4.4710    7.2770    1.3860 n4        1 MOL     -0.365255
     28 H8          0.6600    4.6630    0.9670 hn        1 MOL      0.451246
     29 H9         -0.9200    7.0260    1.1780 h1        1 MOL      0.081548
     30 H10         0.1120    7.8510   -0.8770 hc        1 MOL      0.106245
     31 H11         0.8210    6.2260   -1.2310 hc        1 MOL      0.106245
     32 H12         2.0150    6.5000    0.9730 hc        1 MOL     -0.049550
     33 H13         1.2640    8.1160    1.0900 hc        1 MOL     -0.049550
     34 H14         2.4920    8.7170   -1.0130 hc        1 MOL      0.092267
     35 H15         3.3030    7.0870   -1.0580 hc        1 MOL      0.092267
     36 H16         3.3640    9.0780    1.2760 hx        1 MOL      0.118219
     37 H17         4.6850    8.9050    0.0600 hx        1 MOL      0.118219
     38 H18         4.9240    6.6090    0.7720 hn        1 MOL      0.338434
     39 H19         5.1910    7.6670    1.9770 hn        1 MOL      0.338434
     40 H20         3.8290    6.7710    1.9630 hn        1 MOL      0.338434
     41 N4         -2.0690    5.1680   -1.2930 n         1 MOL     -0.347459
     42 C13        -3.2470    4.9850   -2.1830 c3        1 MOL      0.000958
     43 C14        -4.5610    4.5740   -1.4630 c         1 MOL      0.419061
     44 O6         -5.6780    4.8820   -1.9310 o         1 MOL     -0.547245
     45 C15        -2.8940    3.9820   -3.3080 c3        1 MOL     -0.311171
     46 C16        -2.3790    2.6780   -2.7620 c         1 MOL      0.865686
     47 O7         -3.0160    1.6130   -3.0480 o         1 MOL     -0.747496
     48 O8         -1.2120    2.5750   -2.3180 o         1 MOL     -0.747496
     49 H21        -1.3680    4.4460   -1.2120 hn        1 MOL      0.261850
     50 H22        -3.4860    5.9170   -2.6910 h1        1 MOL      0.112320
     51 H23        -2.1510    4.3480   -4.0200 hc        1 MOL      0.089219
     52 H24        -3.7470    3.7120   -3.9450 hc        1 MOL      0.089219
     53 N5         -4.4900    3.8240   -0.3360 n         1 MOL      0.111679
     54 C17        -5.6660    3.5550    0.4840 c3        1 MOL     -0.251927
     55 C18        -6.3620    2.3180    0.0160 c         1 MOL      0.567135
     56 O9         -7.5180    2.1610    0.3290 o         1 MOL     -0.610554
     57 H25        -3.6170    3.6150    0.1270 hn        1 MOL     -0.009056
     58 H26        -6.3320    4.4170    0.4970 h1        1 MOL      0.122210
     59 H27        -5.4080    3.3490    1.5160 h1        1 MOL      0.122210
     60 N6         -5.7300    1.4160   -0.6580 n         1 MOL     -0.031440
     61 C19        -6.5040    0.2080   -1.2010 c3        1 MOL     -0.166449
     62 C20        -6.6060   -0.9490   -0.0880 c         1 MOL      0.297992
     63 O10        -7.1190   -1.9900   -0.4350 o         1 MOL     -0.436105
     64 C21        -5.7980   -0.3800   -2.3460 c3        1 MOL      0.025553
     65 C22        -4.5860   -1.2570   -2.0360 c         1 MOL      0.517002
     66 N7         -4.3640   -2.3260   -2.7840 n         1 MOL     -0.852035
     67 O11        -3.7830   -0.9480   -1.1920 o         1 MOL     -0.403397
     68 H28        -4.7230    1.4220   -0.6990 hn        1 MOL     -0.216372
     69 H29        -7.5460    0.4550   -1.3790 h1        1 MOL      0.156451
     70 H30        -5.5370    0.3280   -3.1380 hc        1 MOL      0.042968
     71 H31        -6.5000   -1.0430   -2.8610 hc        1 MOL      0.042968
     72 H32        -4.9990   -2.5720   -3.5330 hn        1 MOL      0.388519
     73 H33        -3.6510   -2.9810   -2.5070 hn        1 MOL      0.388519
     74 N8         -6.0730   -0.7920    1.1420 n         1 MOL     -0.062053
     75 C23        -6.1610   -1.6940    2.2700 c3        1 MOL     -0.383268
     76 C24        -5.0240   -2.6820    2.4930 c         1 MOL      0.714132
     77 O12        -5.1150   -3.6110    3.2890 o         1 MOL     -0.569710
     78 H34        -5.5160    0.0220    1.3590 hn        1 MOL      0.256062
     79 H35        -7.0880   -2.2370    2.0970 h1        1 MOL      0.145447
     80 H36        -6.4220   -1.1370    3.1670 h1        1 MOL      0.145447
     81 N9         -3.9080   -2.4620    1.7590 n         1 MOL     -0.664035
     82 C25        -2.6810   -3.3940    1.6220 c3        1 MOL      0.225752
     83 C26        -1.4060   -2.6000    1.2900 c         1 MOL      0.569024
     84 O13        -1.4900   -1.5610    0.6230 o         1 MOL     -0.654443
     85 C27        -2.8470   -4.3580    0.4540 c3        1 MOL      0.360792
     86 C28        -4.0460   -5.3290    0.4200 ca        1 MOL     -0.093124
     87 C29        -5.2370   -4.9510   -0.2070 ca        1 MOL     -0.147627
     88 C30        -3.9670   -6.6550    0.9030 ca        1 MOL     -0.147627
     89 C31        -6.3540   -5.8250   -0.3010 ca        1 MOL     -0.217801
     90 C32        -5.0350   -7.5430    0.7680 ca        1 MOL     -0.217801
     91 C33        -6.2460   -7.1290    0.1840 ca        1 MOL      0.305693
     92 O14        -7.3130   -7.9600    0.1210 oh        1 MOL     -0.445873
     93 H37        -3.8720   -1.5630    1.2950 hn        1 MOL      0.355463
     94 H38        -2.5370   -4.0330    2.4990 h1        1 MOL     -0.006659
     95 H39        -1.8950   -4.8750    0.3920 hc        1 MOL     -0.098355
     96 H40        -2.8770   -3.8270   -0.5010 hc        1 MOL     -0.098355
     97 H41        -5.3610   -3.9490   -0.6100 ha        1 MOL      0.106934
     98 H42        -3.0520   -6.9870    1.3620 ha        1 MOL      0.106934
     99 H43        -7.2740   -5.4900   -0.7820 ha        1 MOL      0.129111
    100 H44        -4.9200   -8.5620    1.1200 ha        1 MOL      0.129111
    101 H45        -7.0020   -8.8220    0.4240 ho        1 MOL      0.328138
    102 N10        -0.2460   -3.1200    1.6250 n         1 MOL     -0.385267
    103 C34         1.0590   -2.6360    1.1030 c3        1 MOL     -0.021756
    104 C35         1.9440   -3.8220    0.5500 c         1 MOL      0.656998
    105 O15         1.7710   -4.9640    0.9080 o         1 MOL     -0.571923
    106 C36         1.7860   -1.8520    2.3280 c3        1 MOL     -0.183242
    107 C37         2.0890   -2.8150    3.5020 c3        1 MOL     -0.033251
    108 C38         1.0240   -0.6540    2.8230 c3        1 MOL     -0.555536
    109 C39         2.9600   -2.2570    4.5560 c3        1 MOL     -0.044462
    110 H46        -0.2130   -4.0130    2.0790 hn        1 MOL      0.230879
    111 H47         0.8610   -1.9830    0.2600 h1        1 MOL      0.130317
    112 H48         2.7340   -1.4950    1.9430 hc        1 MOL      0.042898
    113 H49         2.6520   -3.6900    3.1950 hc        1 MOL      0.053183
    114 H50         1.1600   -3.1570    3.9690 hc        1 MOL      0.053183
    115 H51         1.0420   -0.0070    1.9480 hc        1 MOL      0.219799
    116 H52        -0.0240   -0.8370    3.0710 hc        1 MOL      0.219799
    117 H53         1.5730   -0.0790    3.5630 hc        1 MOL      0.219799
    118 H54         2.4630   -1.4170    5.0560 hc        1 MOL      0.008729
    119 H55         3.2270   -3.0910    5.1960 hc        1 MOL      0.008729
    120 H56         3.8560   -1.8970    4.0340 hc        1 MOL      0.008729
    121 N11         2.9710   -3.4550   -0.2040 n         1 MOL     -0.324001
    122 C40         4.0460   -4.3270   -0.7000 c3        1 MOL      0.072001
    123 C41         5.4020   -3.6530   -0.3360 c         1 MOL      0.515855
    124 O16         5.4640   -2.4710   -0.0250 o         1 MOL     -0.492551
    125 C42         3.7690   -4.5730   -2.2140 c3        1 MOL     -0.007029
    126 O17         2.7750   -5.5870   -2.1430 oh        1 MOL     -0.533230
    127 H57         3.0300   -2.4650   -0.4090 hn        1 MOL      0.209976
    128 H58         3.9620   -5.2100   -0.0750 h1        1 MOL      0.078881
    129 H59         4.6600   -5.0450   -2.6070 h1        1 MOL      0.058759
    130 H60         3.2830   -3.7530   -2.7330 h1        1 MOL      0.058759
    131 H61         3.0610   -6.2100   -2.8140 ho        1 MOL      0.382666
    132 N12         6.5590   -4.3860   -0.4060 n         1 MOL     -0.509213
    133 C43         7.8800   -3.9480    0.0390 c3        1 MOL      0.158535
    134 C44         8.3030   -2.5890   -0.5480 c         1 MOL      0.464739
    135 O18         8.8790   -1.7830    0.1540 o         1 MOL     -0.509630
    136 C45         8.8230   -5.0290   -0.4150 c3        1 MOL     -0.628616
    137 H62         6.5890   -5.2560   -0.9340 hn        1 MOL      0.304611
    138 H63         7.8430   -3.8650    1.1240 h1        1 MOL      0.113891
    139 H64         9.8010   -4.6440   -0.1600 hc        1 MOL      0.185830
    140 H65         8.6170   -5.8950    0.2260 hc        1 MOL      0.185830
    141 H66         8.8040   -5.3140   -1.4610 hc        1 MOL      0.185830
    142 N13         7.8730   -2.2660   -1.7940 n         1 MOL     -0.337314
    143 C46         8.1000   -0.8840   -2.4030 c3        1 MOL      0.048160
    144 C47         7.2400    0.2370   -1.7440 c         1 MOL      0.360779
    145 O19         7.7220    1.4100   -1.6450 o         1 MOL     -0.518772
    146 C48         7.7450   -0.9840   -3.9060 c3        1 MOL     -0.269152
    147 H67         7.5050   -3.0130   -2.3770 hn        1 MOL      0.216507
    148 H68         9.1710   -0.6880   -2.3900 h1        1 MOL      0.125448
    149 H69         6.7550   -1.3860   -4.1380 hc        1 MOL      0.086336
    150 H70         8.0070   -0.0450   -4.3920 hc        1 MOL      0.086336
    151 H71         8.4910   -1.6280   -4.3650 hc        1 MOL      0.086336
    152 N14         6.0890   -0.0500   -1.0950 n         1 MOL     -0.149159
    153 C49         5.3690    1.0270   -0.3260 c3        1 MOL     -0.250110
    154 C50         5.9330    1.1860    1.1390 c         1 MOL      0.474108
    155 O20         5.7680    2.2140    1.7850 o         1 MOL     -0.550509
    156 C51         3.9210    0.5400   -0.2300 c3        1 MOL      0.061866
    157 C52         3.2270    0.6060   -1.5680 c3        1 MOL      0.024176
    158 C53         1.7200    0.3480   -1.5150 c         1 MOL      0.726371
    159 O21         1.1590   -0.7160   -1.9470 o         1 MOL     -0.766364
    160 O22         0.9220    1.1130   -0.9480 o         1 MOL     -0.766364
    161 H72         5.7320   -0.9960   -1.1030 hn        1 MOL      0.231594
    162 H73         5.3190    1.9940   -0.8060 h1        1 MOL      0.171828
    163 H74         3.3960    1.1880    0.4710 hc        1 MOL      0.053953
    164 H75         3.8040   -0.4840    0.1420 hc        1 MOL      0.053953
    165 H76         3.5550   -0.0800   -2.3510 hc        1 MOL     -0.046201
    166 H77         3.3740    1.6150   -1.9440 hc        1 MOL     -0.046201
    167 N15         6.8570    0.2650    1.4520 n         1 MOL     -0.090684
    168 C54         7.7520    0.2730    2.6440 c3        1 MOL     -0.252388
    169 H78         8.7910    0.2170    2.3180 h1        1 MOL      0.104497
    170 H79         7.5990    1.1930    3.2090 h1        1 MOL      0.104497
    171 H80         7.5240   -0.5840    3.2770 h1        1 MOL      0.104497
    172 H81         7.0770   -0.4230    0.7400 hn        1 MOL      0.137729
    173 Ca1        -1.4250    0.0980   -1.5870 Ca        1 MOL      1.759267
    174 O23        -1.1050   -2.5630   -2.3940 oh        1 MOL     -0.828540
    175 H82        -1.6590   -2.7270   -3.1630 ho        1 MOL      0.400497
    176 H83        -0.4050   -3.2070   -2.4720 ho        1 MOL      0.400497
    177 O24        -1.0790   -0.4720   -4.1950 oh        1 MOL     -0.828540
    178 H84        -0.9860   -1.3320   -4.5970 ho        1 MOL      0.400497
    179 H85        -1.0270    0.1450   -4.9290 ho        1 MOL      0.400497
@<TRIPOS>BOND
     1    1    2 1   
     2    1    4 1   
     3    1    5 1   
     4    1    6 1   
     5    2    3 2   
     6    2    7 1   
     7    7    8 1   
     8    7   15 1   
     9    8    9 1   
    10    8   11 1   
    11    8   16 1   
    12    9   10 2   
    13    9   19 1   
    14   11   12 1   
    15   11   17 1   
    16   11   18 1   
    17   12   13 1   
    18   12   14 1   
    19   19   20 1   
    20   19   28 1   
    21   20   21 1   
    22   20   23 1   
    23   20   29 1   
    24   21   22 2   
    25   21   41 1   
    26   23   24 1   
    27   23   30 1   
    28   23   31 1   
    29   24   25 1   
    30   24   32 1   
    31   24   33 1   
    32   25   26 1   
    33   25   34 1   
    34   25   35 1   
    35   26   27 1   
    36   26   36 1   
    37   26   37 1   
    38   27   38 1   
    39   27   39 1   
    40   27   40 1   
    41   41   42 1   
    42   41   49 1   
    43   42   43 1   
    44   42   45 1   
    45   42   50 1   
    46   43   44 2   
    47   43   53 1   
    48   45   46 1   
    49   45   51 1   
    50   45   52 1   
    51   46   47 1   
    52   46   48 1   
    53   53   54 1   
    54   53   57 1   
    55   54   55 1   
    56   54   58 1   
    57   54   59 1   
    58   55   56 2   
    59   55   60 1   
    60   60   61 1   
    61   60   68 1   
    62   61   62 1   
    63   61   64 1   
    64   61   69 1   
    65   62   63 2   
    66   62   74 1   
    67   64   65 1   
    68   64   70 1   
    69   64   71 1   
    70   65   66 1   
    71   65   67 2   
    72   66   72 1   
    73   66   73 1   
    74   74   75 1   
    75   74   78 1   
    76   75   76 1   
    77   75   79 1   
    78   75   80 1   
    79   76   77 2   
    80   76   81 1   
    81   81   82 1   
    82   81   93 1   
    83   82   83 1   
    84   82   85 1   
    85   82   94 1   
    86   83   84 2   
    87   83  102 1   
    88   85   86 1   
    89   85   95 1   
    90   85   96 1   
    91   86   87 ar  
    92   86   88 ar  
    93   87   89 ar  
    94   87   97 1   
    95   88   90 ar  
    96   88   98 1   
    97   89   91 ar  
    98   89   99 1   
    99   90   91 ar  
   100   90  100 1   
   101   91   92 1   
   102   92  101 1   
   103  102  103 1   
   104  102  110 1   
   105  103  104 1   
   106  103  106 1   
   107  103  111 1   
   108  104  105 2   
   109  104  121 1   
   110  106  107 1   
   111  106  108 1   
   112  106  112 1   
   113  107  109 1   
   114  107  113 1   
   115  107  114 1   
   116  108  115 1   
   117  108  116 1   
   118  108  117 1   
   119  109  118 1   
   120  109  119 1   
   121  109  120 1   
   122  121  122 1   
   123  121  127 1   
   124  122  123 1   
   125  122  125 1   
   126  122  128 1   
   127  123  124 2   
   128  123  132 1   
   129  125  126 1   
   130  125  129 1   
   131  125  130 1   
   132  126  131 1   
   133  132  133 1   
   134  132  137 1   
   135  133  134 1   
   136  133  136 1   
   137  133  138 1   
   138  134  135 2   
   139  134  142 1   
   140  136  139 1   
   141  136  140 1   
   142  136  141 1   
   143  142  143 1   
   144  142  147 1   
   145  143  144 1   
   146  143  146 1   
   147  143  148 1   
   148  144  145 2   
   149  144  152 1   
   150  146  149 1   
   151  146  150 1   
   152  146  151 1   
   153  152  153 1   
   154  152  161 1   
   155  153  154 1   
   156  153  156 1   
   157  153  162 1   
   158  154  155 2   
   159  154  167 1   
   160  156  157 1   
   161  156  163 1   
   162  156  164 1   
   163  157  158 1   
   164  157  165 1   
   165  157  166 1   
   166  158  159 1   
   167  158  160 1   
   168  167  168 1   
   169  167  172 1   
   170  168  169 1   
   171  168  170 1   
   172  168  171 1   
   173  174  175 1   
   174  174  176 1   
   175  177  178 1   
   176  177  179 1   
@<TRIPOS>SUBSTRUCTURE
     1 MOL         1 TEMP              0 ****  ****    0 ROOT
