@<TRIPOS>MOLECULE
MOL
  179   176     1     0     0
SMALL
resp


@<TRIPOS>ATOM
      1 C1         -1.0150   -4.3740    5.8960 c3        1 MOL     -0.273910
      2 C2         -0.7750   -3.9450    4.4200 c         1 MOL      0.625997
      3 O1         -1.6580   -4.0950    3.5650 o         1 MOL     -0.566806
      4 H1         -1.0590   -3.4870    6.5290 hc        1 MOL      0.074105
      5 H2         -1.9560   -4.9180    5.9690 hc        1 MOL      0.074105
      6 H3         -0.1980   -5.0150    6.2270 hc        1 MOL      0.074105
      7 N1          0.4050   -3.2870    4.1150 n         1 MOL     -0.464188
      8 C3          0.9520   -2.8280    2.7780 c3        1 MOL     -0.019515
      9 C4          1.3110   -4.0130    1.7610 c         1 MOL      0.512140
     10 O2          2.2740   -4.7400    1.9570 o         1 MOL     -0.543168
     11 C5          2.2000   -1.9450    3.0850 c3        1 MOL     -0.082008
     12 C6          2.7680   -1.2760    1.8620 c         1 MOL      0.698425
     13 O3          3.8960   -0.7470    1.9820 o         1 MOL     -0.727924
     14 O4          2.1890   -1.3640    0.8000 o         1 MOL     -0.727924
     15 H4          1.0870   -3.2130    4.8500 hn        1 MOL      0.275565
     16 H5          0.1550   -2.2540    2.2910 h1        1 MOL      0.044562
     17 H6          2.9650   -2.6110    3.4850 hc        1 MOL      0.047417
     18 H7          2.0110   -1.2780    3.9340 hc        1 MOL      0.047417
     19 N2          0.5920   -4.1820    0.6190 n         1 MOL     -0.384138
     20 C7          0.7760   -5.3160   -0.3060 c3        1 MOL      0.309563
     21 C8          2.0790   -5.4190   -1.0030 c         1 MOL      0.359156
     22 O5          2.5470   -6.5440   -1.2160 o         1 MOL     -0.547862
     23 C9         -0.4470   -5.2550   -1.2760 c3        1 MOL     -0.448534
     24 C10        -1.8580   -5.4370   -0.5940 c3        1 MOL      0.071126
     25 C11        -2.1520   -6.9060   -0.4620 c3        1 MOL     -0.022496
     26 C12        -3.6570   -7.0640   -0.3150 c3        1 MOL     -0.012677
     27 N3         -3.9320   -8.5150   -0.4580 n4        1 MOL     -0.293445
     28 H8         -0.0320   -3.4200    0.3780 hn        1 MOL      0.302505
     29 H9          0.6730   -6.2920    0.1570 h1        1 MOL      0.011888
     30 H10        -0.3390   -6.0680   -1.9940 hc        1 MOL      0.116416
     31 H11        -0.4280   -4.2830   -1.7750 hc        1 MOL      0.116416
     32 H12        -2.6530   -4.9980   -1.1980 hc        1 MOL      0.023729
     33 H13        -1.9050   -4.9190    0.3610 hc        1 MOL      0.023729
     34 H14        -1.6330   -7.1760    0.4530 hc        1 MOL      0.044113
     35 H15        -1.7400   -7.5830   -1.2110 hc        1 MOL      0.044113
     36 H16        -4.0990   -6.4030   -1.0650 hx        1 MOL      0.105350
     37 H17        -3.9950   -6.7760    0.6830 hx        1 MOL      0.105350
     38 H18        -4.8940   -8.6960   -0.1930 hn        1 MOL      0.308270
     39 H19        -3.8370   -8.9210   -1.3750 hn        1 MOL      0.308270
     40 H20        -3.2990   -8.9780    0.1720 hn        1 MOL      0.308270
     41 N4          2.7220   -4.3060   -1.4070 n         1 MOL     -0.137387
     42 C13         3.9300   -4.2960   -2.2260 c3        1 MOL     -0.080366
     43 C14         5.1700   -3.9580   -1.4440 c         1 MOL      0.481830
     44 O6          6.2400   -4.1290   -2.0280 o         1 MOL     -0.522978
     45 C15         3.7440   -3.6780   -3.6360 c3        1 MOL     -0.127563
     46 C16         3.3380   -2.2060   -3.6230 c         1 MOL      0.653534
     47 O7          3.3070   -1.6190   -4.7310 o         1 MOL     -0.691654
     48 O8          3.0800   -1.6380   -2.5090 o         1 MOL     -0.691654
     49 H21         2.3800   -3.4010   -1.0920 hn        1 MOL      0.052344
     50 H22         4.1750   -5.3480   -2.3820 h1        1 MOL      0.115392
     51 H23         3.0950   -4.3400   -4.2080 hc        1 MOL      0.054351
     52 H24         4.7370   -3.6260   -4.0890 hc        1 MOL      0.054351
     53 N5          5.0870   -3.6170   -0.1450 n         1 MOL     -0.229035
     54 C17         6.2660   -3.2710    0.6560 c3        1 MOL     -0.307510
     55 C18         6.9210   -1.9360    0.2940 c         1 MOL      0.563265
     56 O9          8.1500   -1.8750    0.3500 o         1 MOL     -0.549117
     57 H25         4.1830   -3.6640    0.3070 hn        1 MOL      0.264657
     58 H26         6.9920   -4.0400    0.3990 h1        1 MOL      0.140168
     59 H27         6.0300   -3.1270    1.7110 h1        1 MOL      0.140168
     60 N6          6.1420   -0.9610   -0.2220 n         1 MOL     -0.280200
     61 C19         6.6790    0.2070   -0.8990 c3        1 MOL     -0.023594
     62 C20         6.6640    1.4380    0.0240 c         1 MOL      0.319039
     63 O10         7.3360    2.4640   -0.3060 o         1 MOL     -0.510146
     64 C21         5.8700    0.3730   -2.2150 c3        1 MOL     -0.101777
     65 C22         4.5260    1.1510   -2.0070 c         1 MOL      0.636338
     66 N7          4.1940    2.1050   -2.8660 n         1 MOL     -0.782444
     67 O11         3.7470    0.8680   -1.0750 o         1 MOL     -0.712268
     68 H28         5.1690   -1.1990   -0.3240 hn        1 MOL      0.287290
     69 H29         7.6820   -0.0180   -1.2550 h1        1 MOL      0.125563
     70 H30         5.7340   -0.6080   -2.6610 hc        1 MOL      0.079261
     71 H31         6.4870    0.9850   -2.8730 hc        1 MOL      0.079261
     72 H32         4.6300    2.1840   -3.7780 hn        1 MOL      0.374345
     73 H33         3.4610    2.7550   -2.6270 hn        1 MOL      0.374345
     74 N8          5.8890    1.4300    1.1000 n         1 MOL     -0.157671
     75 C23         5.8370    2.5420    2.0360 c3        1 MOL      0.033449
     76 C24         4.5020    3.3080    2.2040 c         1 MOL      0.438654
     77 O12         4.3550    4.3330    2.8830 o         1 MOL     -0.530747
     78 H34         5.2400    0.6570    1.1810 hn        1 MOL      0.141345
     79 H35         6.6410    3.2660    1.9040 h1        1 MOL      0.071805
     80 H36         6.1320    2.1630    3.0100 h1        1 MOL      0.071805
     81 N9          3.5100    2.8430    1.4200 n         1 MOL     -0.623098
     82 C25         2.1990    3.5960    1.2020 c3        1 MOL      0.732598
     83 C26         0.9940    2.6870    1.0670 c         1 MOL      0.086787
     84 O13         1.1200    1.5630    0.6960 o         1 MOL     -0.510050
     85 C27         2.4160    4.5010   -0.0480 c3        1 MOL      0.179216
     86 C28         3.4170    5.6590    0.0700 ca        1 MOL      0.012381
     87 C29         4.7610    5.4360   -0.2280 ca        1 MOL     -0.217885
     88 C30         3.0490    6.9760    0.3790 ca        1 MOL     -0.217885
     89 C31         5.6730    6.4420   -0.3750 ca        1 MOL     -0.170577
     90 C32         3.9830    7.9800    0.3220 ca        1 MOL     -0.170577
     91 C33         5.2550    7.7110   -0.0500 ca        1 MOL      0.308675
     92 O14         6.1320    8.7790   -0.0570 oh        1 MOL     -0.466952
     93 H37         3.7130    1.9510    1.0120 hn        1 MOL      0.408308
     94 H38         2.0160    4.2660    2.0440 h1        1 MOL     -0.089142
     95 H39         1.4780    5.0570   -0.0850 hc        1 MOL     -0.114483
     96 H40         2.5460    3.8750   -0.9330 hc        1 MOL     -0.114483
     97 H41         5.0860    4.4290   -0.4620 ha        1 MOL      0.135754
     98 H42         2.0470    7.1350    0.7320 ha        1 MOL      0.135754
     99 H43         6.6950    6.3070   -0.7010 ha        1 MOL      0.129115
    100 H44         3.6410    8.9800    0.5230 ha        1 MOL      0.129115
    101 H45         5.6080    9.5770   -0.1610 ho        1 MOL      0.317103
    102 N10        -0.2150    3.1840    1.3140 n         1 MOL     -0.278823
    103 C34        -1.3990    2.4650    1.2850 c3        1 MOL     -0.085143
    104 C35        -2.4900    3.4500    0.7310 c         1 MOL      0.465967
    105 O15        -2.6630    4.5630    1.2530 o         1 MOL     -0.520667
    106 C36        -1.8080    1.9320    2.6440 c3        1 MOL      0.014133
    107 C37        -1.0380    0.6430    2.9360 c3        1 MOL      0.023387
    108 C38        -3.3860    1.6120    2.6930 c3        1 MOL     -0.083533
    109 C39        -1.4610   -0.2430    4.1490 c3        1 MOL     -0.375740
    110 H46        -0.2270    4.1130    1.7150 hn        1 MOL      0.268502
    111 H47        -1.4730    1.6380    0.5940 h1        1 MOL      0.183909
    112 H48        -1.5830    2.6420    3.4500 hc        1 MOL      0.032869
    113 H49         0.0200    0.8660    3.0950 hc        1 MOL      0.056599
    114 H50        -0.9860    0.0280    2.0270 hc        1 MOL      0.056599
    115 H51        -3.9770    2.4580    2.3350 hc        1 MOL      0.015973
    116 H52        -3.6690    0.6850    2.2080 hc        1 MOL      0.015973
    117 H53        -3.7070    1.4000    3.7070 hc        1 MOL      0.015973
    118 H54        -1.9610    0.3530    4.9090 hc        1 MOL      0.096101
    119 H55        -2.2110   -0.9990    3.8860 hc        1 MOL      0.096101
    120 H56        -0.6650   -0.8610    4.5420 hc        1 MOL      0.096101
    121 N11        -3.0180    3.0360   -0.3910 n         1 MOL     -0.362833
    122 C40        -4.0940    3.7070   -1.1340 c3        1 MOL      0.150859
    123 C41        -5.4240    3.3860   -0.4550 c         1 MOL      0.343301
    124 O16        -5.4340    2.5100    0.3980 o         1 MOL     -0.271611
    125 C42        -4.0570    3.3290   -2.5940 c3        1 MOL     -0.127274
    126 O17        -4.6160    2.0190   -2.7480 oh        1 MOL     -0.463755
    127 H57        -2.9400    2.0830   -0.7140 hn        1 MOL      0.206568
    128 H58        -3.9440    4.7880   -1.0600 h1        1 MOL      0.047623
    129 H59        -3.0140    3.3560   -2.9110 h1        1 MOL      0.106356
    130 H60        -4.6580    4.0980   -3.0830 h1        1 MOL      0.106356
    131 H61        -3.9700    1.4090   -3.1070 ho        1 MOL      0.383537
    132 N12        -6.5670    4.0250   -0.8000 n         1 MOL     -0.384418
    133 C43        -7.8760    3.7740   -0.1830 c3        1 MOL      0.122515
    134 C44        -8.4490    2.3750   -0.5350 c         1 MOL      0.413248
    135 O18        -9.0810    1.6930    0.2780 o         1 MOL     -0.521507
    136 C45        -8.8650    4.9210   -0.4260 c3        1 MOL     -0.456118
    137 H62        -6.4640    4.8260   -1.4140 hn        1 MOL      0.290428
    138 H63        -7.7160    3.7630    0.8920 h1        1 MOL      0.109173
    139 H64        -8.8220    5.6160    0.4050 hc        1 MOL      0.141067
    140 H65        -8.7020    5.4130   -1.3860 hc        1 MOL      0.141067
    141 H66        -9.9130    4.6190   -0.3830 hc        1 MOL      0.141067
    142 N13        -8.1260    1.7650   -1.6800 n         1 MOL     -0.335696
    143 C46        -8.5080    0.4120   -2.0500 c3        1 MOL      0.097400
    144 C47        -7.4960   -0.5150   -1.4120 c         1 MOL      0.343145
    145 O19        -7.7500   -1.7450   -1.2910 o         1 MOL     -0.536065
    146 C48        -8.5110    0.3210   -3.5870 c3        1 MOL     -0.220305
    147 H67        -7.6120    2.3770   -2.3030 hn        1 MOL      0.259345
    148 H68        -9.5060    0.2350   -1.6590 h1        1 MOL      0.128449
    149 H69        -9.4340    0.7690   -3.9600 hc        1 MOL      0.068174
    150 H70        -7.7070    0.9280   -3.9890 hc        1 MOL      0.068174
    151 H71        -8.4500   -0.7060   -3.9450 hc        1 MOL      0.068174
    152 N14        -6.2730   -0.1090   -1.1610 n         1 MOL     -0.031845
    153 C49        -5.3750   -0.9280   -0.3490 c3        1 MOL     -0.043792
    154 C50        -5.7170   -0.9610    1.1300 c         1 MOL      0.464973
    155 O20        -5.7830   -2.0970    1.6670 o         1 MOL     -0.566454
    156 C51        -4.0030   -0.4480   -0.7160 c3        1 MOL     -0.047079
    157 C52        -2.9000   -1.4330   -0.2650 c3        1 MOL     -0.092346
    158 C53        -1.4950   -1.0090   -0.5970 c         1 MOL      0.686481
    159 O21        -1.3160    0.0500   -1.3110 o         1 MOL     -0.715901
    160 O22        -0.5280   -1.6600   -0.2330 o         1 MOL     -0.715901
    161 H72        -6.0000    0.8510   -1.3290 hn        1 MOL     -0.050774
    162 H73        -5.5220   -1.9400   -0.7190 h1        1 MOL      0.074928
    163 H74        -3.8940    0.5380   -0.2630 hc        1 MOL      0.016866
    164 H75        -3.9530   -0.3800   -1.8010 hc        1 MOL      0.016866
    165 H76        -3.1500   -2.4430   -0.5710 hc        1 MOL      0.036890
    166 H77        -3.0400   -1.4600    0.8140 hc        1 MOL      0.036890
    167 N15        -6.1090    0.1810    1.7080 n         1 MOL      0.045932
    168 C54        -6.7870    0.0940    3.0100 c3        1 MOL     -0.171304
    169 H78        -6.7490    1.0650    3.5040 h1        1 MOL      0.074345
    170 H79        -7.8260   -0.1970    2.8600 h1        1 MOL      0.074345
    171 H80        -6.2860   -0.6490    3.6320 h1        1 MOL      0.074345
    172 H81        -6.0270    1.0370    1.1710 hn        1 MOL      0.023829
    173 Ca1         1.2850   -0.1440   -1.2830 Ca        1 MOL      1.798787
    174 O23         0.1220   -1.0380   -3.5120 oh        1 MOL     -0.868890
    175 H82         0.0060   -0.4700   -4.2780 ho        1 MOL      0.420837
    176 H83        -0.4170   -1.7970   -3.6970 ho        1 MOL      0.420837
    177 O24         0.9240    2.2750   -2.5020 oh        1 MOL     -0.868890
    178 H84         0.2030    2.9030   -2.5360 ho        1 MOL      0.420837
    179 H85         1.5890    2.6400   -3.0850 ho        1 MOL      0.420837
@<TRIPOS>BOND
     1    1    2 1   
     2    1    4 1   
     3    1    5 1   
     4    1    6 1   
     5    2    3 2   
     6    2    7 1   
     7    7    8 1   
     8    7   15 1   
     9    8    9 1   
    10    8   11 1   
    11    8   16 1   
    12    9   10 2   
    13    9   19 1   
    14   11   12 1   
    15   11   17 1   
    16   11   18 1   
    17   12   13 1   
    18   12   14 1   
    19   19   20 1   
    20   19   28 1   
    21   20   21 1   
    22   20   23 1   
    23   20   29 1   
    24   21   22 2   
    25   21   41 1   
    26   23   24 1   
    27   23   30 1   
    28   23   31 1   
    29   24   25 1   
    30   24   32 1   
    31   24   33 1   
    32   25   26 1   
    33   25   34 1   
    34   25   35 1   
    35   26   27 1   
    36   26   36 1   
    37   26   37 1   
    38   27   38 1   
    39   27   39 1   
    40   27   40 1   
    41   41   42 1   
    42   41   49 1   
    43   42   43 1   
    44   42   45 1   
    45   42   50 1   
    46   43   44 2   
    47   43   53 1   
    48   45   46 1   
    49   45   51 1   
    50   45   52 1   
    51   46   47 1   
    52   46   48 1   
    53   53   54 1   
    54   53   57 1   
    55   54   55 1   
    56   54   58 1   
    57   54   59 1   
    58   55   56 2   
    59   55   60 1   
    60   60   61 1   
    61   60   68 1   
    62   61   62 1   
    63   61   64 1   
    64   61   69 1   
    65   62   63 2   
    66   62   74 1   
    67   64   65 1   
    68   64   70 1   
    69   64   71 1   
    70   65   66 1   
    71   65   67 2   
    72   66   72 1   
    73   66   73 1   
    74   74   75 1   
    75   74   78 1   
    76   75   76 1   
    77   75   79 1   
    78   75   80 1   
    79   76   77 2   
    80   76   81 1   
    81   81   82 1   
    82   81   93 1   
    83   82   83 1   
    84   82   85 1   
    85   82   94 1   
    86   83   84 2   
    87   83  102 1   
    88   85   86 1   
    89   85   95 1   
    90   85   96 1   
    91   86   87 ar  
    92   86   88 ar  
    93   87   89 ar  
    94   87   97 1   
    95   88   90 ar  
    96   88   98 1   
    97   89   91 ar  
    98   89   99 1   
    99   90   91 ar  
   100   90  100 1   
   101   91   92 1   
   102   92  101 1   
   103  102  103 1   
   104  102  110 1   
   105  103  104 1   
   106  103  106 1   
   107  103  111 1   
   108  104  105 2   
   109  104  121 1   
   110  106  107 1   
   111  106  108 1   
   112  106  112 1   
   113  107  109 1   
   114  107  113 1   
   115  107  114 1   
   116  108  115 1   
   117  108  116 1   
   118  108  117 1   
   119  109  118 1   
   120  109  119 1   
   121  109  120 1   
   122  121  122 1   
   123  121  127 1   
   124  122  123 1   
   125  122  125 1   
   126  122  128 1   
   127  123  124 2   
   128  123  132 1   
   129  125  126 1   
   130  125  129 1   
   131  125  130 1   
   132  126  131 1   
   133  132  133 1   
   134  132  137 1   
   135  133  134 1   
   136  133  136 1   
   137  133  138 1   
   138  134  135 2   
   139  134  142 1   
   140  136  139 1   
   141  136  140 1   
   142  136  141 1   
   143  142  143 1   
   144  142  147 1   
   145  143  144 1   
   146  143  146 1   
   147  143  148 1   
   148  144  145 2   
   149  144  152 1   
   150  146  149 1   
   151  146  150 1   
   152  146  151 1   
   153  152  153 1   
   154  152  161 1   
   155  153  154 1   
   156  153  156 1   
   157  153  162 1   
   158  154  155 2   
   159  154  167 1   
   160  156  157 1   
   161  156  163 1   
   162  156  164 1   
   163  157  158 1   
   164  157  165 1   
   165  157  166 1   
   166  158  159 1   
   167  158  160 1   
   168  167  168 1   
   169  167  172 1   
   170  168  169 1   
   171  168  170 1   
   172  168  171 1   
   173  174  175 1   
   174  174  176 1   
   175  177  178 1   
   176  177  179 1   
@<TRIPOS>SUBSTRUCTURE
     1 MOL         1 TEMP              0 ****  ****    0 ROOT
