@<TRIPOS>MOLECULE
MOL
  175   173     1     0     0
SMALL
resp


@<TRIPOS>ATOM
      1 C1          0.4100   -1.4590    6.2490 c3        1 MOL     -0.314298
      2 C2          0.6570   -1.7220    4.7230 c         1 MOL      0.738268
      3 O1          0.0020   -2.5700    4.1550 o         1 MOL     -0.566121
      4 H1         -0.6620   -1.4220    6.4420 hc        1 MOL      0.078244
      5 H2          0.8570   -2.2640    6.8340 hc        1 MOL      0.078244
      6 H3          0.8630   -0.5090    6.5320 hc        1 MOL      0.078244
      7 N1          1.4550   -0.8610    4.0110 n         1 MOL     -0.640035
      8 C3          1.8760   -1.0840    2.5950 c3        1 MOL      0.033946
      9 C4          2.4080   -2.4820    2.1990 c         1 MOL      0.593006
     10 O2          3.5180   -2.8690    2.5630 o         1 MOL     -0.565737
     11 C5          2.9670   -0.0540    2.3710 c3        1 MOL     -0.301334
     12 C6          3.4240    0.0590    0.9250 c         1 MOL      0.724417
     13 O3          2.8560   -0.5410   -0.0390 o         1 MOL     -0.738693
     14 O4          4.4020    0.8380    0.7030 o         1 MOL     -0.738693
     15 H4          2.0370   -0.1890    4.5040 hn        1 MOL      0.312682
     16 H5          1.0340   -0.8010    1.9720 h1        1 MOL      0.088642
     17 H6          3.8260   -0.3210    2.9870 hc        1 MOL      0.114625
     18 H7          2.6490    0.9100    2.7680 hc        1 MOL      0.114625
     19 N2          1.7710   -3.1490    1.2360 n         1 MOL     -0.366850
     20 C7          2.0170   -4.4710    0.8380 c3        1 MOL      0.343860
     21 C8          3.1450   -4.6710   -0.1540 c         1 MOL      0.246793
     22 O5          3.6550   -5.7540   -0.3250 o         1 MOL     -0.522900
     23 C9          0.7220   -5.1470    0.4210 c3        1 MOL     -0.353173
     24 H8          0.9950   -2.7090    0.7530 hn        1 MOL      0.187529
     25 H9          2.3400   -4.9140    1.7800 h1        1 MOL      0.008577
     26 H10        -0.1820   -4.8140    0.9420 hc        1 MOL      0.093100
     27 H11         0.5500   -4.8640   -0.6220 hc        1 MOL      0.093100
     28 H12         0.9090   -6.2090    0.5070 hc        1 MOL      0.093100
     29 N3          3.6840   -3.5470   -0.7150 n         1 MOL      0.143622
     30 C10         4.9140   -3.5620   -1.4900 c3        1 MOL     -0.119878
     31 C11         6.1450   -3.3540   -0.5600 c         1 MOL      0.322071
     32 O6          7.2840   -3.6230   -0.9700 o         1 MOL     -0.492585
     33 C12         4.7480   -2.3990   -2.5700 c3        1 MOL      0.070693
     34 C13         3.4330   -2.6350   -3.3270 c         1 MOL      0.597688
     35 O7          2.5470   -1.7540   -3.2110 o         1 MOL     -0.673249
     36 O8          3.3380   -3.5710   -4.1350 o         1 MOL     -0.673249
     37 H13         3.1960   -2.6750   -0.5240 hn        1 MOL      0.016401
     38 H14         5.0610   -4.5220   -1.9810 h1        1 MOL      0.109447
     39 H15         5.5880   -2.3490   -3.2700 hc        1 MOL     -0.063055
     40 H16         4.6840   -1.3880   -2.1970 hc        1 MOL     -0.063055
     41 N4          5.8740   -2.7940    0.6460 n         1 MOL      0.129983
     42 C14         6.8410   -2.5280    1.6470 c3        1 MOL     -0.549910
     43 C15         7.7100   -1.3090    1.2990 c         1 MOL      0.770775
     44 O9          8.8420   -1.3140    1.6850 o         1 MOL     -0.583021
     45 H17         4.9530   -2.5100    0.9300 hn        1 MOL     -0.052050
     46 H18         7.5130   -3.3880    1.6760 h1        1 MOL      0.190082
     47 H19         6.2900   -2.1290    2.4960 h1        1 MOL      0.190082
     48 N5          7.1570   -0.2500    0.6940 n         1 MOL     -0.796416
     49 C16         7.9500    0.9910    0.2570 c3        1 MOL      0.219144
     50 C17         7.6170    2.4120    0.7810 c         1 MOL      0.424279
     51 O10         8.4900    3.2890    0.7880 o         1 MOL     -0.574086
     52 C18         7.9760    0.9540   -1.2960 c3        1 MOL     -0.266608
     53 C19         8.6380   -0.1820   -1.9170 c         1 MOL      0.743681
     54 N6          8.0920   -0.6660   -2.9380 n         1 MOL     -0.773010
     55 O11         9.7010   -0.5770   -1.5440 o         1 MOL     -0.555844
     56 H20         6.1960   -0.4130    0.4290 hn        1 MOL      0.521151
     57 H21         9.0010    0.8240    0.5290 h1        1 MOL      0.075385
     58 H22         8.4960    1.8740   -1.5780 hc        1 MOL      0.036184
     59 H23         6.9510    1.1020   -1.6280 hc        1 MOL      0.036184
     60 H24         7.2840   -0.2440   -3.3650 hn        1 MOL      0.348927
     61 H25         8.4530   -1.4820   -3.4090 hn        1 MOL      0.348927
     62 N7          6.3900    2.7860    1.0570 n         1 MOL     -0.087371
     63 C20         6.0130    4.0720    1.6370 c3        1 MOL     -0.266863
     64 C21         4.6000    4.6210    1.1890 c         1 MOL      0.531862
     65 O12         4.1880    5.7650    1.6280 o         1 MOL     -0.571435
     66 H26         5.6280    2.1240    1.0290 hn        1 MOL      0.142094
     67 H27         6.7230    4.8660    1.4170 h1        1 MOL      0.135138
     68 H28         5.9910    3.7610    2.6800 h1        1 MOL      0.135138
     69 N8          3.7080    3.8480    0.5380 n         1 MOL     -0.274378
     70 C22         2.4130    4.3040    0.0820 c3        1 MOL     -0.044283
     71 C23         1.3700    3.2440    0.1990 c         1 MOL      0.409378
     72 O13         1.5870    2.0660   -0.0410 o         1 MOL     -0.475187
     73 C24         2.4830    4.9510   -1.2710 c3        1 MOL      0.367798
     74 C25         1.3010    5.8830   -1.6020 c3        1 MOL     -0.167013
     75 O14         3.6060    5.7010   -1.4860 oh        1 MOL     -0.611683
     76 H29         3.8270    2.8760    0.3030 hn        1 MOL      0.211229
     77 H30         2.1160    5.1540    0.6880 h1        1 MOL      0.090482
     78 H31         2.4510    4.2010   -2.0670 h1        1 MOL     -0.053774
     79 H32         3.5800    5.9570   -2.4060 ho        1 MOL      0.385434
     80 H33         0.4530    5.2020   -1.5000 hc        1 MOL      0.032087
     81 H34         1.1630    6.7560   -0.9580 hc        1 MOL      0.032087
     82 H35         1.2740    6.2680   -2.6220 hc        1 MOL      0.032087
     83 N9          0.1470    3.6350    0.4650 n         1 MOL     -0.289312
     84 C26        -1.0250    2.8070    0.7110 c3        1 MOL     -0.026074
     85 C27        -2.0700    2.9790   -0.3700 c         1 MOL      0.482930
     86 O15        -2.4880    4.1130   -0.6350 o         1 MOL     -0.573613
     87 C28        -1.6740    3.2000    2.0670 c3        1 MOL     -0.022493
     88 C29        -0.7820    2.7240    3.2020 c3        1 MOL      0.121065
     89 C30        -3.1260    2.6830    2.1310 c3        1 MOL     -0.006368
     90 C31        -1.2010    3.4210    4.5700 c3        1 MOL     -0.264588
     91 H36         0.0220    4.6030    0.6920 hn        1 MOL      0.230065
     92 H37        -0.7530    1.7620    0.8360 h1        1 MOL      0.117495
     93 H38        -1.6120    4.2770    2.2090 hc        1 MOL      0.020741
     94 H39         0.2670    2.9940    3.0980 hc        1 MOL     -0.000150
     95 H40        -0.8500    1.6340    3.2270 hc        1 MOL     -0.000150
     96 H41        -3.5760    2.8020    3.1250 hc        1 MOL      0.001221
     97 H42        -3.7940    3.3360    1.5660 hc        1 MOL      0.001221
     98 H43        -3.1110    1.6150    1.9350 hc        1 MOL      0.001221
     99 H44        -0.5610    3.0080    5.3510 hc        1 MOL      0.054466
    100 H45        -1.0770    4.5110    4.5090 hc        1 MOL      0.054466
    101 H46        -2.1920    3.1740    4.9230 hc        1 MOL      0.054466
    102 N10        -2.3850    1.8470   -1.0150 n         1 MOL     -0.301858
    103 C32        -3.5310    1.6050   -1.9860 c3        1 MOL      0.073317
    104 C33        -4.6880    1.2470   -1.1070 c         1 MOL      0.313824
    105 O16        -4.5720    0.6410   -0.0410 o         1 MOL     -0.170409
    106 C34        -3.1670    0.4590   -2.9600 c3        1 MOL     -0.313139
    107 C35        -1.8110    0.6280   -3.5690 c         1 MOL      0.797530
    108 O17        -1.6460    1.5260   -4.4330 o         1 MOL     -0.736221
    109 O18        -0.8310   -0.0980   -3.2540 o         1 MOL     -0.736221
    110 H47        -1.9250    1.0270   -0.6570 hn        1 MOL      0.173053
    111 H48        -3.7290    2.5080   -2.5570 h1        1 MOL      0.074556
    112 H49        -3.9290    0.4340   -3.7340 hc        1 MOL      0.114869
    113 H50        -3.1790   -0.4930   -2.4300 hc        1 MOL      0.114869
    114 N11        -5.9170    1.4560   -1.6820 n         1 MOL     -0.567389
    115 C36        -7.1300    1.0520   -0.9910 c3        1 MOL      0.413531
    116 C37        -7.2690   -0.4630   -0.5210 c         1 MOL      0.223308
    117 O19        -7.7460   -0.7150    0.5640 o         1 MOL     -0.437333
    118 C38        -8.3100    1.4460   -1.7510 c3        1 MOL     -0.352063
    119 C39        -9.6870    1.0970   -0.9770 ca        1 MOL      0.190760
    120 C40       -10.0580    1.8790    0.1250 ca        1 MOL     -0.255289
    121 C41       -10.6320    0.1120   -1.5050 ca        1 MOL     -0.255289
    122 C42       -11.3320    1.6470    0.7220 ca        1 MOL     -0.021127
    123 C43       -11.8800   -0.0770   -0.8680 ca        1 MOL     -0.021127
    124 C44       -12.2420    0.7230    0.2070 ca        1 MOL     -0.204965
    125 H51        -5.8680    1.9130   -2.5810 hn        1 MOL      0.317063
    126 H52        -7.1440    1.6780   -0.1030 h1        1 MOL      0.043631
    127 H53        -8.3580    0.8270   -2.6520 hc        1 MOL      0.101403
    128 H54        -8.3200    2.5050   -2.0060 hc        1 MOL      0.101403
    129 H55        -9.4420    2.6760    0.5220 ha        1 MOL      0.141142
    130 H56       -10.4370   -0.4600   -2.3960 ha        1 MOL      0.141142
    131 H57       -11.5340    2.1490    1.6520 ha        1 MOL      0.095016
    132 H58       -12.5620   -0.8190   -1.2600 ha        1 MOL      0.095016
    133 H59       -13.1920    0.5800    0.7010 ha        1 MOL      0.119913
    134 N12        -6.8500   -1.5080   -1.2570 n         1 MOL      0.006568
    135 C45        -6.7940   -2.9090   -0.6880 c3        1 MOL     -0.034231
    136 C46        -5.9280   -2.9930    0.5990 c         1 MOL      0.328967
    137 O20        -6.1880   -3.9190    1.3850 o         1 MOL     -0.505552
    138 C47        -6.1880   -3.7130   -1.8320 c3        1 MOL     -0.035650
    139 C48        -6.6850   -3.0130   -3.1170 c3        1 MOL     -0.076070
    140 C49        -6.4580   -1.5300   -2.6720 c3        1 MOL     -0.117306
    141 H60        -7.8260   -3.1720   -0.4690 h1        1 MOL      0.091040
    142 H61        -5.1060   -3.6650   -1.8770 hc        1 MOL      0.053866
    143 H62        -6.5240   -4.7440   -1.7740 hc        1 MOL      0.053866
    144 H63        -6.1190   -3.2430   -4.0180 hc        1 MOL      0.047460
    145 H64        -7.7210   -3.3420   -3.2520 hc        1 MOL      0.047460
    146 H65        -5.4080   -1.2500   -2.7820 h1        1 MOL      0.043895
    147 H66        -7.0300   -0.7860   -3.2300 h1        1 MOL      0.043895
    148 N13        -4.8910   -2.1660    0.7410 n         1 MOL     -0.172450
    149 C50        -4.0010   -1.9790    1.9340 c3        1 MOL      0.000148
    150 C51        -4.5960   -1.1120    3.0280 c         1 MOL      0.421557
    151 O21        -4.6090   -1.4760    4.1820 o         1 MOL     -0.564784
    152 C52        -2.6210   -1.4170    1.5340 c3        1 MOL     -0.058968
    153 C53        -1.9520   -2.0570    0.3470 c3        1 MOL     -0.032246
    154 C54        -0.6590   -1.4030   -0.1680 c         1 MOL      0.808238
    155 O22        -0.4980   -0.2010   -0.1910 o         1 MOL     -0.777866
    156 O23         0.0960   -2.0700   -0.8700 o         1 MOL     -0.777866
    157 H67        -4.8990   -1.4410    0.0370 hn        1 MOL      0.147151
    158 H68        -3.9170   -2.9640    2.3890 h1        1 MOL      0.105609
    159 H69        -1.9340   -1.5830    2.3590 hc        1 MOL      0.035028
    160 H70        -2.6440   -0.3540    1.2990 hc        1 MOL      0.035028
    161 H71        -2.6820   -2.1100   -0.4600 hc        1 MOL     -0.000694
    162 H72        -1.7200   -3.0710    0.6780 hc        1 MOL     -0.000694
    163 N14        -5.2630   -0.0650    2.6480 n         1 MOL      0.075623
    164 C55        -6.1630    0.6770    3.5120 c3        1 MOL     -0.286620
    165 H73        -7.1900    0.3690    3.3180 h1        1 MOL      0.095867
    166 H74        -5.9150    0.4760    4.5550 h1        1 MOL      0.095867
    167 H75        -6.0600    1.7440    3.3130 h1        1 MOL      0.095867
    168 H76        -5.2380    0.2100    1.6830 hn        1 MOL     -0.055292
    169 Ca1         1.3420   -0.0070   -1.9760 Ca        1 MOL      1.728750
    170 O24         0.9250    2.4950   -3.3380 oh        1 MOL     -0.807071
    171 H77         1.2480    3.2310   -3.8670 ho        1 MOL      0.398620
    172 H78         0.0220    2.3840   -3.6140 ho        1 MOL      0.398620
    173 O25         3.2210    0.7520   -4.1880 oh        1 MOL     -0.807071
    174 H79         3.8330    0.5380   -3.4840 ho        1 MOL      0.398620
    175 H80         3.7860    0.9660   -4.9390 ho        1 MOL      0.398620
@<TRIPOS>BOND
     1    1    2 1   
     2    1    4 1   
     3    1    5 1   
     4    1    6 1   
     5    2    3 2   
     6    2    7 1   
     7    7    8 1   
     8    7   15 1   
     9    8    9 1   
    10    8   11 1   
    11    8   16 1   
    12    9   10 2   
    13    9   19 1   
    14   11   12 1   
    15   11   17 1   
    16   11   18 1   
    17   12   13 1   
    18   12   14 1   
    19   19   20 1   
    20   19   24 1   
    21   20   21 1   
    22   20   23 1   
    23   20   25 1   
    24   21   22 2   
    25   21   29 1   
    26   23   26 1   
    27   23   27 1   
    28   23   28 1   
    29   29   30 1   
    30   29   37 1   
    31   30   31 1   
    32   30   33 1   
    33   30   38 1   
    34   31   32 2   
    35   31   41 1   
    36   33   34 1   
    37   33   39 1   
    38   33   40 1   
    39   34   35 1   
    40   34   36 1   
    41   41   42 1   
    42   41   45 1   
    43   42   43 1   
    44   42   46 1   
    45   42   47 1   
    46   43   44 2   
    47   43   48 1   
    48   48   49 1   
    49   48   56 1   
    50   49   50 1   
    51   49   52 1   
    52   49   57 1   
    53   50   51 2   
    54   50   62 1   
    55   52   53 1   
    56   52   58 1   
    57   52   59 1   
    58   53   54 1   
    59   53   55 2   
    60   54   60 1   
    61   54   61 1   
    62   62   63 1   
    63   62   66 1   
    64   63   64 1   
    65   63   67 1   
    66   63   68 1   
    67   64   65 2   
    68   64   69 1   
    69   69   70 1   
    70   69   76 1   
    71   70   71 1   
    72   70   73 1   
    73   70   77 1   
    74   71   72 2   
    75   71   83 1   
    76   73   74 1   
    77   73   75 1   
    78   73   78 1   
    79   74   80 1   
    80   74   81 1   
    81   74   82 1   
    82   75   79 1   
    83   83   84 1   
    84   83   91 1   
    85   84   85 1   
    86   84   87 1   
    87   84   92 1   
    88   85   86 2   
    89   85  102 1   
    90   87   88 1   
    91   87   89 1   
    92   87   93 1   
    93   88   90 1   
    94   88   94 1   
    95   88   95 1   
    96   89   96 1   
    97   89   97 1   
    98   89   98 1   
    99   90   99 1   
   100   90  100 1   
   101   90  101 1   
   102  102  103 1   
   103  102  110 1   
   104  103  104 1   
   105  103  106 1   
   106  103  111 1   
   107  104  105 2   
   108  104  114 1   
   109  106  107 1   
   110  106  112 1   
   111  106  113 1   
   112  107  108 1   
   113  107  109 1   
   114  114  115 1   
   115  114  125 1   
   116  115  116 1   
   117  115  118 1   
   118  115  126 1   
   119  116  117 2   
   120  116  134 1   
   121  118  119 1   
   122  118  127 1   
   123  118  128 1   
   124  119  120 ar  
   125  119  121 ar  
   126  120  122 ar  
   127  120  129 1   
   128  121  123 ar  
   129  121  130 1   
   130  122  124 ar  
   131  122  131 1   
   132  123  124 ar  
   133  123  132 1   
   134  124  133 1   
   135  134  135 1   
   136  134  140 1   
   137  135  136 1   
   138  135  138 1   
   139  135  141 1   
   140  136  137 2   
   141  136  148 1   
   142  138  139 1   
   143  138  142 1   
   144  138  143 1   
   145  139  140 1   
   146  139  144 1   
   147  139  145 1   
   148  140  146 1   
   149  140  147 1   
   150  148  149 1   
   151  148  157 1   
   152  149  150 1   
   153  149  152 1   
   154  149  158 1   
   155  150  151 2   
   156  150  163 1   
   157  152  153 1   
   158  152  159 1   
   159  152  160 1   
   160  153  154 1   
   161  153  161 1   
   162  153  162 1   
   163  154  155 1   
   164  154  156 1   
   165  163  164 1   
   166  163  168 1   
   167  164  165 1   
   168  164  166 1   
   169  164  167 1   
   170  170  171 1   
   171  170  172 1   
   172  173  174 1   
   173  173  175 1   
@<TRIPOS>SUBSTRUCTURE
     1 MOL         1 TEMP              0 ****  ****    0 ROOT
