@<TRIPOS>MOLECULE
MOL
  189   185     1     0     0
SMALL
resp


@<TRIPOS>ATOM
      1 C1         -0.7730    0.7310    6.6230 c3        1 MOL     -0.345074
      2 C2         -0.9450    0.8370    5.0960 c         1 MOL      0.722060
      3 O1         -0.0580    1.3470    4.3240 o         1 MOL     -0.615054
      4 H1         -1.6380    1.1730    7.1170 hc        1 MOL      0.091471
      5 H2         -0.6890   -0.3180    6.9080 hc        1 MOL      0.091471
      6 H3          0.1300    1.2630    6.9250 hc        1 MOL      0.091471
      7 N1         -2.1100    0.3500    4.5910 n         1 MOL     -0.495205
      8 C3         -2.5270    0.5530    3.2310 c3        1 MOL     -0.164047
      9 C4         -2.8560    2.0300    2.9630 c         1 MOL      0.544218
     10 O2         -3.7440    2.6150    3.5380 o         1 MOL     -0.554725
     11 C5         -3.9010   -0.2190    2.8910 c3        1 MOL     -0.128849
     12 C6         -4.4150   -0.0290    1.4290 c         1 MOL      0.843848
     13 O3         -3.5970    0.4030    0.5910 o         1 MOL     -0.739267
     14 O4         -5.5830   -0.2650    1.1360 o         1 MOL     -0.739267
     15 H4         -2.8100    0.1230    5.2770 hn        1 MOL      0.314468
     16 H5         -1.6470    0.3280    2.6310 h1        1 MOL      0.111342
     17 H6         -4.7200   -0.0630    3.5790 hc        1 MOL      0.053327
     18 H7         -3.8180   -1.2880    3.0790 hc        1 MOL      0.053327
     19 N2         -2.0760    2.7080    2.0610 n         1 MOL     -0.049670
     20 C7         -2.1280    4.1690    1.7970 c3        1 MOL     -0.373531
     21 C8         -3.2820    4.6600    0.9170 c         1 MOL      0.629268
     22 O5         -3.5320    5.8670    0.8810 o         1 MOL     -0.586174
     23 C9         -0.7260    4.4170    1.2080 c3        1 MOL     -0.043971
     24 C10        -0.5450    5.8190    0.6940 c3        1 MOL     -0.006238
     25 C11         0.8680    6.1450    0.2850 c3        1 MOL     -0.138359
     26 C12         0.8040    7.5010   -0.3860 c3        1 MOL      0.081795
     27 N3          2.2120    7.9360   -0.7080 n4        1 MOL     -0.320358
     28 H8         -1.4850    2.0900    1.5370 hn        1 MOL      0.104952
     29 H9         -2.2630    4.7480    2.6980 h1        1 MOL      0.163820
     30 H10        -0.5750    3.6780    0.4160 hc        1 MOL      0.090251
     31 H11        -0.0500    4.1770    2.0250 hc        1 MOL      0.090251
     32 H12        -0.9130    6.5230    1.4430 hc        1 MOL      0.048146
     33 H13        -1.1430    5.9950   -0.1920 hc        1 MOL      0.048146
     34 H14         1.1160    5.3710   -0.4510 hc        1 MOL      0.044951
     35 H15         1.5010    6.1430    1.1680 hc        1 MOL      0.044951
     36 H16         0.2370    8.1890    0.2340 hx        1 MOL      0.095435
     37 H17         0.2410    7.3860   -1.3090 hx        1 MOL      0.095435
     38 H18         2.8100    8.0350    0.0930 hn        1 MOL      0.298528
     39 H19         2.6420    7.2140   -1.2800 hn        1 MOL      0.298528
     40 H20         2.3250    8.8030   -1.2240 hn        1 MOL      0.298528
     41 N4         -4.0690    3.7490    0.3330 n         1 MOL     -0.260812
     42 C13        -4.9500    3.9920   -0.8170 c3        1 MOL     -0.033759
     43 C14        -6.3770    3.5810   -0.6010 c         1 MOL      0.412956
     44 O6         -7.3160    3.9880   -1.3080 o         1 MOL     -0.483095
     45 C15        -4.2810    3.4080   -2.1210 c3        1 MOL      0.107780
     46 C16        -2.7230    3.5990   -2.1790 c         1 MOL      0.596934
     47 O7         -2.2280    4.6690   -2.5880 o         1 MOL     -0.646546
     48 O8         -2.0200    2.6840   -1.6860 o         1 MOL     -0.646546
     49 H21        -3.7630    2.8020    0.4960 hn        1 MOL      0.057461
     50 H22        -5.0720    5.0700   -0.8950 h1        1 MOL      0.092344
     51 H23        -4.7500    3.9170   -2.9590 hc        1 MOL     -0.038633
     52 H24        -4.4130    2.3300   -2.2710 hc        1 MOL     -0.038633
     53 N5         -6.6390    2.6710    0.3560 n         1 MOL     -0.249727
     54 C17        -7.7370    1.7290    0.3320 c3        1 MOL     -0.251418
     55 C18        -7.7970    0.8250   -0.9330 c         1 MOL      0.459879
     56 O9         -8.8290    0.7600   -1.6240 o         1 MOL     -0.527063
     57 H25        -5.9650    2.5420    1.1010 hn        1 MOL      0.233739
     58 H26        -8.6400    2.3460    0.2180 h1        1 MOL      0.125843
     59 H27        -7.7810    1.1970    1.2800 h1        1 MOL      0.125843
     60 N6         -6.6820    0.2210   -1.3820 n         1 MOL     -0.186937
     61 C19        -6.7280   -0.9580   -2.2770 c3        1 MOL     -0.089502
     62 C20        -6.6380   -2.3200   -1.6190 c         1 MOL      0.454757
     63 O10        -6.8040   -3.3380   -2.3220 o         1 MOL     -0.532445
     64 C21        -5.6490   -0.7860   -3.3740 c3        1 MOL     -0.229323
     65 C22        -4.2540   -0.6560   -2.8090 c         1 MOL      0.836811
     66 O11        -3.4370    0.1480   -3.2550 o         1 MOL     -0.799502
     67 O12        -3.8480   -1.4240   -1.9220 o         1 MOL     -0.799502
     68 H28        -5.8070    0.2790   -0.8740 hn        1 MOL      0.275835
     69 H29        -7.7330   -0.9550   -2.7070 h1        1 MOL      0.121737
     70 H30        -5.8450    0.0710   -4.0090 hc        1 MOL      0.073211
     71 H31        -5.6190   -1.6880   -3.9770 hc        1 MOL      0.073211
     72 N7         -6.3780   -2.3940   -0.2870 n         1 MOL     -0.287442
     73 C23        -6.4300   -3.5800    0.5170 c3        1 MOL     -0.036781
     74 C24        -5.1620   -4.5350    0.4450 c         1 MOL      0.427886
     75 O13        -5.3280   -5.7550    0.5820 o         1 MOL     -0.536489
     76 H32        -6.0900   -1.5560    0.1920 hn        1 MOL      0.255075
     77 H33        -7.3040   -4.1960    0.3320 h1        1 MOL      0.063737
     78 H34        -6.5180   -3.2310    1.5460 h1        1 MOL      0.063737
     79 N8         -4.0460   -4.0150   -0.0440 n         1 MOL     -0.099840
     80 C25        -2.7960   -4.7030   -0.3390 c3        1 MOL     -0.363826
     81 C26        -1.7050   -3.7730    0.0450 c         1 MOL      0.687727
     82 O14        -1.7970   -2.5620   -0.1910 o         1 MOL     -0.637295
     83 C27        -2.6320   -5.1290   -1.8460 c3        1 MOL      0.575119
     84 C28        -3.2980   -6.4140   -2.2220 c3        1 MOL     -0.531314
     85 O15        -3.0390   -4.0090   -2.6680 oh        1 MOL     -0.641736
     86 H35        -4.0150   -2.9970   -0.0680 hn        1 MOL      0.150042
     87 H36        -2.7150   -5.5550    0.3540 h1        1 MOL      0.119062
     88 H37        -1.5620   -5.2880   -2.0060 h1        1 MOL     -0.028606
     89 H38        -3.6130   -3.4910   -2.1010 ho        1 MOL      0.427211
     90 H39        -2.8900   -6.8010   -3.1480 hc        1 MOL      0.140634
     91 H40        -3.2080   -7.1740   -1.4440 hc        1 MOL      0.140634
     92 H41        -4.3440   -6.1670   -2.4160 hc        1 MOL      0.140634
     93 N9         -0.5570   -4.3210    0.5710 n         1 MOL     -0.564882
     94 C29         0.6220   -3.5290    0.9670 c3        1 MOL      0.058859
     95 C30         1.6920   -3.9340   -0.0530 c         1 MOL      0.413646
     96 O16         2.1380   -5.0800   -0.1340 o         1 MOL     -0.524633
     97 C31         1.1020   -3.9160    2.4280 c3        1 MOL      0.079180
     98 C32         0.0360   -3.3590    3.4610 c3        1 MOL      0.087600
     99 C33         2.4440   -3.3040    2.7700 c3        1 MOL     -0.096733
    100 C34         0.3640   -3.5480    4.9520 c3        1 MOL     -0.272359
    101 H42        -0.5270   -5.3360    0.5920 hn        1 MOL      0.306477
    102 H43         0.3820   -2.4700    0.9190 h1        1 MOL      0.023064
    103 H44         1.0740   -5.0110    2.4850 hc        1 MOL      0.026796
    104 H45        -0.9630   -3.7730    3.3210 hc        1 MOL     -0.001386
    105 H46         0.0940   -2.2770    3.3170 hc        1 MOL     -0.001386
    106 H47         2.4580   -2.2180    2.7420 hc        1 MOL      0.008839
    107 H48         2.7290   -3.7760    3.7110 hc        1 MOL      0.008839
    108 H49         3.1480   -3.6880    2.0310 hc        1 MOL      0.008839
    109 H50         0.6640   -4.5890    5.0130 hc        1 MOL      0.065343
    110 H51         1.1540   -2.8690    5.2690 hc        1 MOL      0.065343
    111 H52        -0.5250   -3.2870    5.5230 hc        1 MOL      0.065343
    112 N10         2.2480   -2.7940   -0.6130 n         1 MOL     -0.114220
    113 C35         3.4630   -2.7700   -1.4360 c3        1 MOL      0.022754
    114 C36         4.7880   -2.4490   -0.7400 c         1 MOL      0.242757
    115 O17         4.8040   -2.1700    0.4600 o         1 MOL     -0.309052
    116 C37         3.3200   -1.7180   -2.5560 c3        1 MOL      0.318449
    117 C38         2.1440   -1.9030   -3.4560 c3        1 MOL     -0.369789
    118 O18         3.1270   -0.4730   -2.0230 oh        1 MOL     -0.607105
    119 H53         1.8270   -1.9020   -0.4000 hn        1 MOL      0.198580
    120 H54         3.6450   -3.6830   -2.0080 h1        1 MOL      0.029974
    121 H55         4.2250   -1.7180   -3.1710 h1        1 MOL     -0.019980
    122 H56         2.1680   -0.4330   -1.9850 ho        1 MOL      0.393266
    123 H57         2.3000   -2.8000   -4.0570 hc        1 MOL      0.088481
    124 H58         1.2160   -2.0490   -2.9030 hc        1 MOL      0.088481
    125 H59         2.0480   -0.9710   -4.0130 hc        1 MOL      0.088481
    126 N11         5.8770   -2.4370   -1.4810 n         1 MOL     -0.125000
    127 C39         7.1980   -2.4710   -0.8040 c3        1 MOL     -0.246826
    128 C40         7.5360   -1.1720   -0.0580 c         1 MOL      0.506799
    129 O19         8.3050   -1.2470    0.8660 o         1 MOL     -0.503400
    130 C41         8.3650   -2.7670   -1.7680 c3        1 MOL      0.137522
    131 C42         8.5450   -4.2030   -2.2920 c3        1 MOL     -0.352375
    132 O20         8.2390   -2.0960   -3.0000 oh        1 MOL     -0.632660
    133 H60         5.8300   -2.6350   -2.4720 hn        1 MOL      0.242542
    134 H61         7.1740   -3.3360   -0.1490 h1        1 MOL      0.180764
    135 H62         9.1670   -2.2740   -1.2270 h1        1 MOL      0.096697
    136 H63         8.9940   -2.4040   -3.4980 ho        1 MOL      0.413911
    137 H64         9.4460   -4.2750   -2.9120 hc        1 MOL      0.112208
    138 H65         8.7410   -4.9410   -1.5180 hc        1 MOL      0.112208
    139 H66         7.6920   -4.6220   -2.8320 hc        1 MOL      0.112208
    140 N12         7.0470   -0.0280   -0.5130 n         1 MOL     -0.286059
    141 C43         7.0740    1.2970    0.0920 c3        1 MOL     -0.076261
    142 C44         6.2480    1.3840    1.3160 c         1 MOL      0.486792
    143 O21         6.5090    2.0590    2.2860 o         1 MOL     -0.499993
    144 C45         6.6090    2.2990   -0.9670 c3        1 MOL     -0.010309
    145 C46         7.7890    2.9230   -1.6220 c3        1 MOL      0.319074
    146 C47         7.3770    4.1910   -2.4090 c3        1 MOL     -0.090839
    147 C48         8.4510    4.8660   -3.2930 c3        1 MOL     -0.118012
    148 N13         8.8580    4.0660   -4.4020 n4        1 MOL     -0.224039
    149 H67         6.4260   -0.1930   -1.2980 hn        1 MOL      0.219125
    150 H68         8.0830    1.5380    0.4300 h1        1 MOL      0.083662
    151 H69         6.0230    3.1240   -0.5540 hc        1 MOL      0.006126
    152 H70         5.9530    1.8410   -1.7060 hc        1 MOL      0.006126
    153 H71         8.2010    2.1860   -2.3200 hc        1 MOL     -0.066917
    154 H72         8.5190    3.2640   -0.8990 hc        1 MOL     -0.066917
    155 H73         7.1240    4.8980   -1.6190 hc        1 MOL      0.046017
    156 H74         6.4860    3.9230   -2.9660 hc        1 MOL      0.046017
    157 H75         9.3100    5.0890   -2.6540 hx        1 MOL      0.118535
    158 H76         8.0580    5.7850   -3.7260 hx        1 MOL      0.118535
    159 H77         8.0970    3.6130   -4.8940 hn        1 MOL      0.277262
    160 H78         9.2390    4.6460   -5.1440 hn        1 MOL      0.277262
    161 H79         9.6150    3.4790   -4.0980 hn        1 MOL      0.277262
    162 N14         5.0550    0.7100    1.2580 n         1 MOL     -0.271972
    163 C49         4.0350    0.7390    2.3880 c3        1 MOL     -0.278128
    164 C50         4.6710   -0.1060    3.5610 c         1 MOL      0.499129
    165 O22         4.5430    0.1940    4.7660 o         1 MOL     -0.524162
    166 C51         2.6590    0.2540    1.9370 c3        1 MOL      0.122016
    167 C52         2.0290    1.2090    0.8820 c3        1 MOL     -0.058945
    168 C53         0.7680    0.5360    0.3530 c         1 MOL      0.777469
    169 O23         0.8490   -0.4040   -0.5020 o         1 MOL     -0.732304
    170 O24        -0.2890    1.1080    0.4740 o         1 MOL     -0.732304
    171 H80         4.7690    0.2030    0.4300 hn        1 MOL      0.184598
    172 H81         3.9150    1.7530    2.7530 h1        1 MOL      0.147098
    173 H82         1.9730    0.2030    2.7820 hc        1 MOL      0.060515
    174 H83         2.7860   -0.7330    1.4830 hc        1 MOL      0.060515
    175 H84         2.6670    1.3750    0.0100 hc        1 MOL     -0.011890
    176 H85         1.7470    2.1720    1.3030 hc        1 MOL     -0.011890
    177 N15         5.4150   -1.2040    3.1750 n         1 MOL     -0.105463
    178 C54         6.0280   -2.1530    4.0930 c3        1 MOL     -0.264566
    179 H86         6.7260   -2.7860    3.5460 h1        1 MOL      0.101902
    180 H87         6.5640   -1.6110    4.8720 h1        1 MOL      0.101902
    181 H88         5.2550   -2.7730    4.5460 h1        1 MOL      0.101902
    182 H89         5.3420   -1.4820    2.2020 hn        1 MOL      0.105575
    183 Ca1        -1.7580    0.0480   -1.2720 Ca        1 MOL      1.765913
    184 O25         0.1080    0.8200   -3.4130 oh        1 MOL     -0.821060
    185 H90        -0.4300    1.6100   -3.5590 ho        1 MOL      0.396758
    186 H91         0.4570    0.6150   -4.2750 ho        1 MOL      0.396758
    187 O26        -1.3810   -1.8870   -3.2320 oh        1 MOL     -0.821060
    188 H92        -1.9500   -2.6390   -3.0710 ho        1 MOL      0.396758
    189 H93        -1.6210   -1.5980   -4.1090 ho        1 MOL      0.396758
@<TRIPOS>BOND
     1    1    2 1   
     2    1    4 1   
     3    1    5 1   
     4    1    6 1   
     5    2    3 2   
     6    2    7 1   
     7    7    8 1   
     8    7   15 1   
     9    8    9 1   
    10    8   11 1   
    11    8   16 1   
    12    9   10 2   
    13    9   19 1   
    14   11   12 1   
    15   11   17 1   
    16   11   18 1   
    17   12   13 1   
    18   12   14 1   
    19   19   20 1   
    20   19   28 1   
    21   20   21 1   
    22   20   23 1   
    23   20   29 1   
    24   21   22 2   
    25   21   41 1   
    26   23   24 1   
    27   23   30 1   
    28   23   31 1   
    29   24   25 1   
    30   24   32 1   
    31   24   33 1   
    32   25   26 1   
    33   25   34 1   
    34   25   35 1   
    35   26   27 1   
    36   26   36 1   
    37   26   37 1   
    38   27   38 1   
    39   27   39 1   
    40   27   40 1   
    41   41   42 1   
    42   41   49 1   
    43   42   43 1   
    44   42   45 1   
    45   42   50 1   
    46   43   44 2   
    47   43   53 1   
    48   45   46 1   
    49   45   51 1   
    50   45   52 1   
    51   46   47 1   
    52   46   48 1   
    53   53   54 1   
    54   53   57 1   
    55   54   55 1   
    56   54   58 1   
    57   54   59 1   
    58   55   56 2   
    59   55   60 1   
    60   60   61 1   
    61   60   68 1   
    62   61   62 1   
    63   61   64 1   
    64   61   69 1   
    65   62   63 2   
    66   62   72 1   
    67   64   65 1   
    68   64   70 1   
    69   64   71 1   
    70   65   66 1   
    71   65   67 1   
    72   72   73 1   
    73   72   76 1   
    74   73   74 1   
    75   73   77 1   
    76   73   78 1   
    77   74   75 2   
    78   74   79 1   
    79   79   80 1   
    80   79   86 1   
    81   80   81 1   
    82   80   83 1   
    83   80   87 1   
    84   81   82 2   
    85   81   93 1   
    86   83   84 1   
    87   83   85 1   
    88   83   88 1   
    89   84   90 1   
    90   84   91 1   
    91   84   92 1   
    92   85   89 1   
    93   93   94 1   
    94   93  101 1   
    95   94   95 1   
    96   94   97 1   
    97   94  102 1   
    98   95   96 2   
    99   95  112 1   
   100   97   98 1   
   101   97   99 1   
   102   97  103 1   
   103   98  100 1   
   104   98  104 1   
   105   98  105 1   
   106   99  106 1   
   107   99  107 1   
   108   99  108 1   
   109  100  109 1   
   110  100  110 1   
   111  100  111 1   
   112  112  113 1   
   113  112  119 1   
   114  113  114 1   
   115  113  116 1   
   116  113  120 1   
   117  114  115 2   
   118  114  126 1   
   119  116  117 1   
   120  116  118 1   
   121  116  121 1   
   122  117  123 1   
   123  117  124 1   
   124  117  125 1   
   125  118  122 1   
   126  126  127 1   
   127  126  133 1   
   128  127  128 1   
   129  127  130 1   
   130  127  134 1   
   131  128  129 2   
   132  128  140 1   
   133  130  131 1   
   134  130  132 1   
   135  130  135 1   
   136  131  137 1   
   137  131  138 1   
   138  131  139 1   
   139  132  136 1   
   140  140  141 1   
   141  140  149 1   
   142  141  142 1   
   143  141  144 1   
   144  141  150 1   
   145  142  143 2   
   146  142  162 1   
   147  144  145 1   
   148  144  151 1   
   149  144  152 1   
   150  145  146 1   
   151  145  153 1   
   152  145  154 1   
   153  146  147 1   
   154  146  155 1   
   155  146  156 1   
   156  147  148 1   
   157  147  157 1   
   158  147  158 1   
   159  148  159 1   
   160  148  160 1   
   161  148  161 1   
   162  162  163 1   
   163  162  171 1   
   164  163  164 1   
   165  163  166 1   
   166  163  172 1   
   167  164  165 2   
   168  164  177 1   
   169  166  167 1   
   170  166  173 1   
   171  166  174 1   
   172  167  168 1   
   173  167  175 1   
   174  167  176 1   
   175  168  169 1   
   176  168  170 1   
   177  177  178 1   
   178  177  182 1   
   179  178  179 1   
   180  178  180 1   
   181  178  181 1   
   182  184  185 1   
   183  184  186 1   
   184  187  188 1   
   185  187  189 1   
@<TRIPOS>SUBSTRUCTURE
     1 MOL         1 TEMP              0 ****  ****    0 ROOT
