@<TRIPOS>MOLECULE
MOL
  175   173     1     0     0
SMALL
resp


@<TRIPOS>ATOM
      1 C1          0.3850    4.1810    5.4710 c3        1 MOL     -0.364786
      2 C2         -0.1840    4.1360    4.0490 c         1 MOL      0.672574
      3 O1          0.5360    4.2800    3.0920 o         1 MOL     -0.524148
      4 H1         -0.4310    4.2910    6.1850 hc        1 MOL      0.088613
      5 H2          0.9240    3.2560    5.6770 hc        1 MOL      0.088613
      6 H3          1.0650    5.0270    5.5650 hc        1 MOL      0.088613
      7 N1         -1.4980    3.8140    3.8890 n         1 MOL     -0.570234
      8 C3         -2.1160    3.6460    2.5950 c3        1 MOL      0.082041
      9 C4         -2.1320    4.8270    1.6090 c         1 MOL      0.518691
     10 O2         -2.3990    6.0040    1.9610 o         1 MOL     -0.579357
     11 C5         -3.5640    3.2850    2.8750 c3        1 MOL     -0.450995
     12 C6         -4.2360    2.7150    1.6330 c         1 MOL      0.752930
     13 O3         -5.4760    2.8590    1.5390 o         1 MOL     -0.694049
     14 O4         -3.5980    2.1120    0.7640 o         1 MOL     -0.694049
     15 H4         -1.9920    3.6450    4.7580 hn        1 MOL      0.317538
     16 H5         -1.5160    2.8260    2.1890 h1        1 MOL      0.060639
     17 H6         -3.9960    4.2620    3.0570 hc        1 MOL      0.119983
     18 H7         -3.6150    2.6310    3.7440 hc        1 MOL      0.119983
     19 N2         -2.0210    4.5760    0.3150 n         1 MOL     -0.324285
     20 C7         -2.1480    5.5820   -0.7300 c3        1 MOL      0.268364
     21 C8         -3.0140    5.0300   -1.9370 c         1 MOL      0.441678
     22 O5         -3.0660    5.7070   -2.9590 o         1 MOL     -0.560579
     23 C9         -0.7970    6.1720   -1.1230 c3        1 MOL     -0.179177
     24 H8         -1.6530    3.6740    0.0180 hn        1 MOL      0.298585
     25 H9         -2.6800    6.4560   -0.3670 h1        1 MOL      0.006643
     26 H10        -0.3350    6.6410   -0.2520 hc        1 MOL      0.037133
     27 H11        -0.1990    5.3750   -1.5640 hc        1 MOL      0.037133
     28 H12        -0.8680    6.8930   -1.9300 hc        1 MOL      0.037133
     29 N3         -3.7060    3.8860   -1.8240 n         1 MOL     -0.360848
     30 C10        -4.5930    3.3310   -2.9000 c3        1 MOL      0.306472
     31 C11        -5.9460    2.6730   -2.3500 c         1 MOL      0.264482
     32 O6         -6.9870    2.9920   -2.9190 o         1 MOL     -0.545617
     33 C12        -3.8040    2.4320   -3.8250 c3        1 MOL     -0.229255
     34 C13        -3.0520    1.3230   -3.1800 c         1 MOL      0.722403
     35 O7         -1.8610    1.0810   -3.5230 o         1 MOL     -0.691634
     36 O8         -3.5730    0.6800   -2.2510 o         1 MOL     -0.691634
     37 H13        -3.7120    3.3200   -0.9890 hn        1 MOL      0.086304
     38 H14        -4.8950    4.1100   -3.6000 h1        1 MOL      0.014244
     39 H15        -3.1120    3.0790   -4.3670 hc        1 MOL      0.047238
     40 H16        -4.5410    1.9800   -4.4840 hc        1 MOL      0.047238
     41 N4         -5.9310    1.8210   -1.3110 n         1 MOL      0.003545
     42 C14        -7.0950    1.0250   -0.8480 c3        1 MOL     -0.162505
     43 C15        -7.0940   -0.3870   -1.2800 c         1 MOL      0.553905
     44 O9         -8.1170   -1.0830   -1.2470 o         1 MOL     -0.665026
     45 H17        -5.0090    1.5770   -0.9810 hn        1 MOL      0.145474
     46 H18        -8.0470    1.4660   -1.1370 h1        1 MOL      0.090264
     47 H19        -7.0580    1.0270    0.2400 h1        1 MOL      0.090264
     48 N5         -6.0380   -0.9420   -1.7910 n         1 MOL     -0.198941
     49 C16        -6.0860   -2.3520   -2.3120 c3        1 MOL     -0.005225
     50 C17        -6.1530   -3.4240   -1.1960 c         1 MOL      0.430743
     51 O10        -5.9530   -4.5980   -1.4490 o         1 MOL     -0.520769
     52 C18        -4.8980   -2.3910   -3.2780 c3        1 MOL     -0.190721
     53 C19        -3.5200   -2.4430   -2.5360 c         1 MOL      0.600928
     54 N6         -2.4880   -2.8060   -3.3030 n         1 MOL     -0.626962
     55 O11        -3.3530   -2.1490   -1.3760 o         1 MOL     -0.631671
     56 H20        -5.1810   -0.4170   -1.8820 hn        1 MOL      0.098162
     57 H21        -6.9730   -2.4210   -2.9310 h1        1 MOL      0.114962
     58 H22        -4.9560   -1.5480   -3.9590 hc        1 MOL      0.063507
     59 H23        -5.0340   -3.2570   -3.9090 hc        1 MOL      0.063507
     60 H24        -2.6660   -3.0880   -4.2520 hn        1 MOL      0.328090
     61 H25        -1.6340   -2.4100   -2.9330 hn        1 MOL      0.328090
     62 N7         -6.4110   -3.1230    0.0770 n         1 MOL     -0.186793
     63 C20        -6.4450   -4.0510    1.2110 c3        1 MOL     -0.406099
     64 C21        -5.0540   -4.4000    1.7300 c         1 MOL      0.631787
     65 O12        -5.0130   -5.1240    2.7220 o         1 MOL     -0.586934
     66 H26        -6.6350   -2.1560    0.2720 hn        1 MOL      0.235628
     67 H27        -6.9960   -4.9500    0.9230 h1        1 MOL      0.167273
     68 H28        -6.9750   -3.5080    1.9860 h1        1 MOL      0.167273
     69 N8         -3.9600   -3.9140    1.1340 n         1 MOL     -0.434914
     70 C22        -2.5730   -4.2820    1.4980 c3        1 MOL     -0.086509
     71 C23        -1.5050   -3.1790    1.5930 c         1 MOL      0.614440
     72 O13        -1.5250   -2.1760    0.8790 o         1 MOL     -0.496225
     73 C24        -1.9270   -5.2980    0.4780 c3        1 MOL      0.496354
     74 C25        -2.5500   -6.7180    0.3910 c3        1 MOL     -0.339013
     75 O14        -1.8760   -4.7640   -0.8000 oh        1 MOL     -0.574000
     76 H29        -4.1120   -3.3920    0.2810 hn        1 MOL      0.330122
     77 H30        -2.5600   -4.6560    2.5230 h1        1 MOL      0.065896
     78 H31        -0.8960   -5.4610    0.8140 h1        1 MOL     -0.052466
     79 H32        -1.7910   -3.8270   -0.6130 ho        1 MOL      0.331321
     80 H33        -3.5050   -6.7050   -0.1270 hc        1 MOL      0.080057
     81 H34        -1.8920   -7.3840   -0.1650 hc        1 MOL      0.080057
     82 H35        -2.6040   -7.1860    1.3740 hc        1 MOL      0.080057
     83 N9         -0.5330   -3.4460    2.5180 n         1 MOL     -0.697578
     84 C26         0.6790   -2.6380    2.5300 c3        1 MOL     -0.001976
     85 C27         1.3930   -3.0000    1.2260 c         1 MOL      0.582308
     86 O15         1.7480   -4.1620    1.0270 o         1 MOL     -0.587538
     87 C28         1.5940   -2.7910    3.7770 c3        1 MOL      0.160671
     88 C29         0.7120   -2.9020    5.0640 c3        1 MOL      0.188721
     89 C30         2.6100   -1.6120    3.8420 c3        1 MOL     -0.306619
     90 C31         1.5050   -3.1000    6.4000 c3        1 MOL     -0.273438
     91 H36        -0.6330   -4.2970    3.0730 hn        1 MOL      0.335999
     92 H37         0.3230   -1.6150    2.5470 h1        1 MOL      0.050684
     93 H38         2.1420   -3.7290    3.6110 hc        1 MOL     -0.016060
     94 H39        -0.0170   -3.7160    5.0180 hc        1 MOL     -0.025494
     95 H40         0.1590   -1.9680    5.1720 hc        1 MOL     -0.025494
     96 H41         3.2050   -1.6950    2.9360 hc        1 MOL      0.065021
     97 H42         2.2070   -0.6070    3.9290 hc        1 MOL      0.065021
     98 H43         3.2290   -1.7440    4.7240 hc        1 MOL      0.065021
     99 H44         2.1800   -3.9370    6.2140 hc        1 MOL      0.054490
    100 H45         2.0330   -2.1760    6.6450 hc        1 MOL      0.054490
    101 H46         0.8030   -3.4380    7.1720 hc        1 MOL      0.054490
    102 N10         1.6180   -2.0280    0.4100 n         1 MOL     -0.350285
    103 C32         2.4710   -2.1630   -0.7790 c3        1 MOL      0.110674
    104 C33         3.9140   -1.8560   -0.4360 c         1 MOL      0.393857
    105 O16         4.1860   -1.2380    0.5990 o         1 MOL     -0.325522
    106 C34         1.9430   -1.1900   -1.8690 c3        1 MOL     -0.407684
    107 C35         0.5470   -1.5270   -2.2510 c         1 MOL      0.809011
    108 O17         0.3010   -2.2690   -3.1860 o         1 MOL     -0.669513
    109 O18        -0.4000   -1.0160   -1.5970 o         1 MOL     -0.669513
    110 H47         1.0880   -1.1850    0.6370 hn        1 MOL      0.277043
    111 H48         2.4210   -3.1800   -1.1610 h1        1 MOL      0.073098
    112 H49         2.5340   -1.3350   -2.7720 hc        1 MOL      0.090149
    113 H50         2.1000   -0.1820   -1.4890 hc        1 MOL      0.090149
    114 N11         4.8430   -2.1630   -1.3010 n         1 MOL     -0.558730
    115 C36         6.2340   -1.8320   -1.1850 c3        1 MOL      0.353053
    116 C37         6.5090   -0.3210   -1.0500 c         1 MOL      0.379779
    117 O19         7.1570    0.0020   -0.0680 o         1 MOL     -0.507680
    118 C38         7.0300   -2.6250   -2.2340 c3        1 MOL     -0.085055
    119 C39         8.4750   -2.2550   -2.2760 ca        1 MOL     -0.019289
    120 C40         8.9250   -1.3630   -3.2140 ca        1 MOL     -0.083564
    121 C41         9.3270   -2.5600   -1.1950 ca        1 MOL     -0.083564
    122 C42        10.2740   -0.8880   -3.2350 ca        1 MOL     -0.178894
    123 C43        10.6630   -2.0520   -1.1420 ca        1 MOL     -0.178894
    124 C44        11.1460   -1.2290   -2.1990 ca        1 MOL     -0.053146
    125 H51         4.5760   -2.5950   -2.1730 hn        1 MOL      0.293467
    126 H52         6.4370   -2.2210   -0.1860 h1        1 MOL      0.033954
    127 H53         6.6260   -2.5270   -3.2400 hc        1 MOL      0.034283
    128 H54         6.9420   -3.6810   -1.9890 hc        1 MOL      0.034283
    129 H55         8.2290   -1.2500   -4.0250 ha        1 MOL      0.092814
    130 H56         8.8820   -3.1270   -0.3980 ha        1 MOL      0.092814
    131 H57        10.4750   -0.0710   -3.9100 ha        1 MOL      0.127430
    132 H58        11.2350   -2.4360   -0.3060 ha        1 MOL      0.127430
    133 H59        12.1200   -0.7700   -2.1810 ha        1 MOL      0.099097
    134 N12         5.9480    0.6240   -1.8750 n         1 MOL     -0.079239
    135 C45         6.2300    2.0840   -1.7030 c3        1 MOL     -0.034158
    136 C46         5.6060    2.7130   -0.4590 c         1 MOL      0.287230
    137 O20         6.0580    3.7400    0.0010 o         1 MOL     -0.511977
    138 C47         5.7830    2.7760   -2.9520 c3        1 MOL      0.025980
    139 C48         5.7800    1.5850   -3.9670 c3        1 MOL     -0.025184
    140 C49         5.2080    0.4790   -3.0510 c3        1 MOL     -0.312045
    141 H60         7.3120    2.2250   -1.6790 h1        1 MOL      0.116323
    142 H61         4.8710    3.3790   -2.9490 hc        1 MOL      0.034453
    143 H62         6.5850    3.4830   -3.1660 hc        1 MOL      0.034453
    144 H63         5.1990    1.8810   -4.8380 hc        1 MOL      0.023125
    145 H64         6.8130    1.3490   -4.2580 hc        1 MOL      0.023125
    146 H65         4.1680    0.7180   -2.8690 h1        1 MOL      0.143822
    147 H66         5.3870   -0.5190   -3.4590 h1        1 MOL      0.143822
    148 N13         4.6490    2.1710    0.2480 n         1 MOL     -0.039164
    149 C50         4.1500    2.6150    1.5290 c3        1 MOL     -0.246628
    150 C51         5.0060    2.0180    2.6710 c         1 MOL      0.572114
    151 O21         5.3380    2.6870    3.6710 o         1 MOL     -0.578729
    152 C52         2.6690    2.2370    1.6760 c3        1 MOL      0.243932
    153 C53         1.7620    2.6540    0.5250 c3        1 MOL     -0.161839
    154 C54         0.4430    1.9520    0.4720 c         1 MOL      0.658935
    155 O22        -0.5030    2.3550   -0.2500 o         1 MOL     -0.750131
    156 O23         0.2210    0.8730    1.0920 o         1 MOL     -0.750131
    157 H67         4.1970    1.3410   -0.0910 hn        1 MOL      0.160114
    158 H68         4.0780    3.6960    1.6630 h1        1 MOL      0.114284
    159 H69         2.4130    2.6870    2.6300 hc        1 MOL     -0.028258
    160 H70         2.5390    1.1650    1.8440 hc        1 MOL     -0.028258
    161 H71         2.2440    2.3480   -0.4060 hc        1 MOL      0.056900
    162 H72         1.5470    3.7200    0.6460 hc        1 MOL      0.056900
    163 N14         5.3250    0.7340    2.5000 n         1 MOL     -0.152871
    164 C55         6.3470    0.0730    3.4790 c3        1 MOL     -0.248147
    165 H73         5.9990    0.1950    4.5050 h1        1 MOL      0.101937
    166 H74         6.4350   -0.9900    3.2500 h1        1 MOL      0.101937
    167 H75         7.3210    0.5510    3.3670 h1        1 MOL      0.101937
    168 H76         4.9950    0.1730    1.7310 hn        1 MOL      0.071745
    169 Ca1        -2.1250    0.2040   -0.2320 Ca        1 MOL      1.723002
    170 O24        -1.5470    0.1160    2.8350 oh        1 MOL     -0.789687
    171 H77        -0.7620    0.3870    2.3430 ho        1 MOL      0.388683
    172 H78        -1.4170    0.4770    3.7090 ho        1 MOL      0.388683
    173 O25        -4.0220   -0.6130    1.4530 oh        1 MOL     -0.789687
    174 H79        -4.9330   -0.5290    1.7180 ho        1 MOL      0.388683
    175 H80        -3.5200   -0.5830    2.2660 ho        1 MOL      0.388683
@<TRIPOS>BOND
     1    1    2 1   
     2    1    4 1   
     3    1    5 1   
     4    1    6 1   
     5    2    3 2   
     6    2    7 1   
     7    7    8 1   
     8    7   15 1   
     9    8    9 1   
    10    8   11 1   
    11    8   16 1   
    12    9   10 2   
    13    9   19 1   
    14   11   12 1   
    15   11   17 1   
    16   11   18 1   
    17   12   13 1   
    18   12   14 1   
    19   19   20 1   
    20   19   24 1   
    21   20   21 1   
    22   20   23 1   
    23   20   25 1   
    24   21   22 2   
    25   21   29 1   
    26   23   26 1   
    27   23   27 1   
    28   23   28 1   
    29   29   30 1   
    30   29   37 1   
    31   30   31 1   
    32   30   33 1   
    33   30   38 1   
    34   31   32 2   
    35   31   41 1   
    36   33   34 1   
    37   33   39 1   
    38   33   40 1   
    39   34   35 1   
    40   34   36 1   
    41   41   42 1   
    42   41   45 1   
    43   42   43 1   
    44   42   46 1   
    45   42   47 1   
    46   43   44 2   
    47   43   48 1   
    48   48   49 1   
    49   48   56 1   
    50   49   50 1   
    51   49   52 1   
    52   49   57 1   
    53   50   51 2   
    54   50   62 1   
    55   52   53 1   
    56   52   58 1   
    57   52   59 1   
    58   53   54 1   
    59   53   55 2   
    60   54   60 1   
    61   54   61 1   
    62   62   63 1   
    63   62   66 1   
    64   63   64 1   
    65   63   67 1   
    66   63   68 1   
    67   64   65 2   
    68   64   69 1   
    69   69   70 1   
    70   69   76 1   
    71   70   71 1   
    72   70   73 1   
    73   70   77 1   
    74   71   72 2   
    75   71   83 1   
    76   73   74 1   
    77   73   75 1   
    78   73   78 1   
    79   74   80 1   
    80   74   81 1   
    81   74   82 1   
    82   75   79 1   
    83   83   84 1   
    84   83   91 1   
    85   84   85 1   
    86   84   87 1   
    87   84   92 1   
    88   85   86 2   
    89   85  102 1   
    90   87   88 1   
    91   87   89 1   
    92   87   93 1   
    93   88   90 1   
    94   88   94 1   
    95   88   95 1   
    96   89   96 1   
    97   89   97 1   
    98   89   98 1   
    99   90   99 1   
   100   90  100 1   
   101   90  101 1   
   102  102  103 1   
   103  102  110 1   
   104  103  104 1   
   105  103  106 1   
   106  103  111 1   
   107  104  105 2   
   108  104  114 1   
   109  106  107 1   
   110  106  112 1   
   111  106  113 1   
   112  107  108 1   
   113  107  109 1   
   114  114  115 1   
   115  114  125 1   
   116  115  116 1   
   117  115  118 1   
   118  115  126 1   
   119  116  117 2   
   120  116  134 1   
   121  118  119 1   
   122  118  127 1   
   123  118  128 1   
   124  119  120 ar  
   125  119  121 ar  
   126  120  122 ar  
   127  120  129 1   
   128  121  123 ar  
   129  121  130 1   
   130  122  124 ar  
   131  122  131 1   
   132  123  124 ar  
   133  123  132 1   
   134  124  133 1   
   135  134  135 1   
   136  134  140 1   
   137  135  136 1   
   138  135  138 1   
   139  135  141 1   
   140  136  137 2   
   141  136  148 1   
   142  138  139 1   
   143  138  142 1   
   144  138  143 1   
   145  139  140 1   
   146  139  144 1   
   147  139  145 1   
   148  140  146 1   
   149  140  147 1   
   150  148  149 1   
   151  148  157 1   
   152  149  150 1   
   153  149  152 1   
   154  149  158 1   
   155  150  151 2   
   156  150  163 1   
   157  152  153 1   
   158  152  159 1   
   159  152  160 1   
   160  153  154 1   
   161  153  161 1   
   162  153  162 1   
   163  154  155 1   
   164  154  156 1   
   165  163  164 1   
   166  163  168 1   
   167  164  165 1   
   168  164  166 1   
   169  164  167 1   
   170  170  171 1   
   171  170  172 1   
   172  173  174 1   
   173  173  175 1   
@<TRIPOS>SUBSTRUCTURE
     1 MOL         1 TEMP              0 ****  ****    0 ROOT
