@<TRIPOS>MOLECULE
MOL
  186   183     1     0     0
SMALL
resp


@<TRIPOS>ATOM
      1 C1          0.2490   -1.3750    6.4840 c3        1 MOL     -0.346023
      2 C2          0.5840   -1.5790    4.9430 c         1 MOL      0.775121
      3 O1         -0.3220   -1.7710    4.2160 o         1 MOL     -0.555809
      4 H1          1.1700   -1.4180    7.0650 hc        1 MOL      0.073900
      5 H2         -0.2250   -0.4030    6.6280 hc        1 MOL      0.073900
      6 H3         -0.4270   -2.1620    6.8170 hc        1 MOL      0.073900
      7 N1          1.8190   -1.5940    4.5060 n         1 MOL     -0.699505
      8 C3          2.3050   -1.7350    3.1180 c3        1 MOL      0.416425
      9 C4          2.4580   -3.2280    2.8230 c         1 MOL      0.497824
     10 O2          2.8120   -4.0900    3.6910 o         1 MOL     -0.604417
     11 C5          3.6260   -0.9840    2.9790 c3        1 MOL     -0.439845
     12 C6          4.2680   -1.0690    1.6170 c         1 MOL      0.800981
     13 O3          3.6780   -1.3030    0.5250 o         1 MOL     -0.667222
     14 O4          5.5100   -0.8240    1.5950 o         1 MOL     -0.667222
     15 H4          2.5470   -1.4050    5.1810 hn        1 MOL      0.313284
     16 H5          1.6130   -1.2700    2.4240 h1        1 MOL      0.038728
     17 H6          4.3140   -1.4160    3.7030 hc        1 MOL      0.090718
     18 H7          3.5700    0.0870    3.1610 hc        1 MOL      0.090718
     19 N2          2.2250   -3.6610    1.5850 n         1 MOL     -0.301446
     20 C7          2.0420   -5.0370    1.0780 c3        1 MOL     -0.063679
     21 C8          2.8280   -5.2870   -0.2130 c         1 MOL      0.503281
     22 O5          3.0110   -6.4670   -0.5120 o         1 MOL     -0.562578
     23 C9          0.5480   -5.2720    0.7640 c3        1 MOL      0.363508
     24 C10        -0.4000   -4.8670    1.9270 c3        1 MOL     -0.045090
     25 C11         0.2030   -6.7470    0.4550 c3        1 MOL     -0.271039
     26 C12        -0.4880   -5.7130    3.1900 c3        1 MOL     -0.073677
     27 H8          1.8590   -2.9530    0.9640 hn        1 MOL      0.075377
     28 H9          2.3640   -5.7940    1.7900 h1        1 MOL      0.085346
     29 H10         0.3200   -4.6940   -0.1260 hc        1 MOL     -0.021554
     30 H11        -1.4150   -4.8510    1.5070 hc        1 MOL      0.041617
     31 H12        -0.2180   -3.8630    2.3240 hc        1 MOL      0.041617
     32 H13         0.5890   -6.9720   -0.5350 hc        1 MOL      0.040765
     33 H14         0.6850   -7.3600    1.2170 hc        1 MOL      0.040765
     34 H15        -0.8710   -6.8460    0.5880 hc        1 MOL      0.040765
     35 H16        -0.5400   -6.7770    2.9470 hc        1 MOL      0.004236
     36 H17         0.3770   -5.5770    3.8450 hc        1 MOL      0.004236
     37 H18        -1.4080   -5.5420    3.7500 hc        1 MOL      0.004236
     38 N3          3.3450   -4.2380   -0.9010 n         1 MOL     -0.422200
     39 C13         4.0920   -4.2580   -2.1540 c3        1 MOL      0.154177
     40 C14         5.4870   -3.6530   -1.9480 c         1 MOL      0.360758
     41 O6          6.4250   -3.9150   -2.7210 o         1 MOL     -0.560159
     42 C15         3.3400   -3.6780   -3.3100 c3        1 MOL     -0.132102
     43 C16         2.7900   -2.2950   -3.0950 c         1 MOL      0.775796
     44 O7          1.5540   -2.1690   -3.0070 o         1 MOL     -0.761310
     45 O8          3.5320   -1.3080   -2.9170 o         1 MOL     -0.761310
     46 H19         3.1380   -3.3350   -0.5060 hn        1 MOL      0.351601
     47 H20         4.4010   -5.2480   -2.4650 h1        1 MOL      0.059939
     48 H21         2.5680   -4.3680   -3.6540 hc        1 MOL      0.030245
     49 H22         4.0010   -3.6660   -4.1780 hc        1 MOL      0.030245
     50 N4          5.7370   -2.9870   -0.8330 n         1 MOL     -0.046442
     51 C17         7.0370   -2.7080   -0.3120 c3        1 MOL     -0.331802
     52 C18         7.6640   -1.4360   -0.7470 c         1 MOL      0.534951
     53 O9          8.9220   -1.4020   -0.8200 o         1 MOL     -0.632560
     54 H23         4.9260   -2.8420   -0.2610 hn        1 MOL      0.043203
     55 H24         7.6700   -3.5640   -0.5040 h1        1 MOL      0.146409
     56 H25         6.9410   -2.6070    0.7620 h1        1 MOL      0.146409
     57 N5          6.9090   -0.4530   -1.0970 n         1 MOL     -0.104264
     58 C19         7.3350    0.8270   -1.6010 c3        1 MOL     -0.029676
     59 C20         7.6370    1.8790   -0.6090 c         1 MOL      0.381907
     60 O10         8.0550    3.0090   -0.9590 o         1 MOL     -0.556120
     61 C21         6.3470    1.3440   -2.6720 c3        1 MOL     -0.067774
     62 C22         4.9150    1.3390   -2.2140 c         1 MOL      0.873072
     63 O11         4.6630    1.3360   -1.0010 o         1 MOL     -0.785114
     64 O12         3.9370    1.5540   -3.0140 o         1 MOL     -0.785114
     65 H26         5.9080   -0.5940   -1.0520 hn        1 MOL      0.065609
     66 H27         8.2620    0.5540   -2.1050 h1        1 MOL      0.094244
     67 H28         6.3690    0.6540   -3.5250 hc        1 MOL      0.019088
     68 H29         6.6720    2.2720   -3.1350 hc        1 MOL      0.019088
     69 N6          7.0950    1.6980    0.6140 n         1 MOL     -0.164782
     70 C23         7.1380    2.6200    1.7580 c3        1 MOL     -0.089768
     71 C24         5.9830    3.6620    1.7760 c         1 MOL      0.469106
     72 O13         6.1060    4.6900    2.4950 o         1 MOL     -0.589628
     73 H30         6.6360    0.8020    0.7660 hn        1 MOL      0.182472
     74 H31         8.0280    3.2450    1.6920 h1        1 MOL      0.060811
     75 H32         7.1530    2.0530    2.6810 h1        1 MOL      0.060811
     76 N7          4.9430    3.4100    1.0180 n         1 MOL     -0.265188
     77 C25         3.6440    4.1120    1.1020 c3        1 MOL      0.084171
     78 C26         2.4520    3.1180    1.0750 c         1 MOL      0.396131
     79 O14         2.5990    1.9160    0.6600 o         1 MOL     -0.644019
     80 C27         3.5730    5.1530   -0.1020 c3        1 MOL     -0.464060
     81 C28         4.9020    6.0300   -0.2440 c3        1 MOL     -0.033294
     82 C29         4.7040    7.0640   -1.3010 c         1 MOL      0.578310
     83 N8          5.7630    7.8720   -1.4550 n         1 MOL     -0.782822
     84 O15         3.8000    7.0580   -2.1220 o         1 MOL     -0.531270
     85 H33         4.9510    2.4490    0.7070 hn        1 MOL      0.347202
     86 H34         3.5630    4.6780    2.0230 h1        1 MOL      0.035917
     87 H35         2.6650    5.7400    0.0340 hc        1 MOL      0.166668
     88 H36         3.4450    4.5740   -1.0180 hc        1 MOL      0.166668
     89 H37         5.6740    5.3320   -0.5650 hc        1 MOL      0.078373
     90 H38         5.3320    6.4320    0.6710 hc        1 MOL      0.078373
     91 H39         6.5880    7.7350   -0.8910 hn        1 MOL      0.342152
     92 H40         5.6590    8.6810   -2.0580 hn        1 MOL      0.342152
     93 N9          1.2700    3.5410    1.4920 n         1 MOL     -0.224753
     94 C30         0.0360    2.7090    1.5950 c3        1 MOL      0.158070
     95 C31        -0.9650    3.2570    0.5740 c         1 MOL      0.300803
     96 O16        -1.2250    4.4950    0.5050 o         1 MOL     -0.580227
     97 C32        -0.4890    2.7800    2.9960 c3        1 MOL      0.232315
     98 C33        -1.5180    1.6220    3.1320 c3        1 MOL     -0.279867
     99 C34         0.5780    2.7700    4.0180 c3        1 MOL     -0.279867
    100 H41         1.1650    4.5500    1.5240 hn        1 MOL      0.231154
    101 H42         0.3280    1.7000    1.3280 h1        1 MOL      0.069609
    102 H43        -0.9690    3.7430    3.0780 hc        1 MOL     -0.029309
    103 H44        -2.3370    1.6140    2.4070 hc        1 MOL      0.050613
    104 H45        -1.0510    0.6280    3.1650 hc        1 MOL      0.050613
    105 H46        -2.1380    1.7320    4.0240 hc        1 MOL      0.050613
    106 H47         1.1840    3.6630    3.8450 hc        1 MOL      0.050613
    107 H48         0.0870    2.8760    4.9820 hc        1 MOL      0.050613
    108 H49         1.1710    1.8600    4.0050 hc        1 MOL      0.050613
    109 N10        -1.6550    2.3740   -0.1830 n         1 MOL      0.022319
    110 C35        -2.7340    2.7150   -1.1300 c3        1 MOL      0.088145
    111 C36        -4.0550    2.2080   -0.5510 c         1 MOL      0.337890
    112 O17        -3.9790    1.3650    0.2970 o         1 MOL     -0.370349
    113 C37        -2.3890    2.2430   -2.5960 c3        1 MOL     -0.341017
    114 C38        -2.9200    0.9280   -2.9990 c         1 MOL      0.658912
    115 N11        -2.1030   -0.0450   -2.9830 n         1 MOL     -0.735894
    116 O18        -4.1290    0.7430   -3.2820 o         1 MOL     -0.633322
    117 H50        -1.3910    1.4000   -0.1860 hn        1 MOL      0.007944
    118 H51        -2.9210    3.7850   -1.2210 h1        1 MOL      0.052928
    119 H52        -1.3090    2.3380   -2.7210 hc        1 MOL      0.109959
    120 H53        -2.7970    2.9960   -3.2720 hc        1 MOL      0.109959
    121 H54        -1.1880    0.0110   -2.5620 hn        1 MOL      0.391371
    122 H55        -2.4300   -0.9170   -3.3720 hn        1 MOL      0.391371
    123 N12        -5.2150    2.7260   -0.9190 n         1 MOL     -0.428638
    124 C39        -6.5760    2.4340   -0.3230 c3        1 MOL      0.115774
    125 C40        -6.8180    0.9530   -0.3130 c         1 MOL      0.519001
    126 O19        -7.5540    0.4340    0.5620 o         1 MOL     -0.502667
    127 C41        -7.7050    3.1530   -1.0780 c3        1 MOL     -0.241037
    128 C42        -9.0200    2.8640   -0.4880 ca        1 MOL      0.039927
    129 C43        -9.4290    3.5510    0.6830 ca        1 MOL     -0.183663
    130 C44        -9.8140    1.8860   -1.1010 ca        1 MOL     -0.183663
    131 C45       -10.6870    3.2510    1.1990 ca        1 MOL     -0.181770
    132 C46       -11.0290    1.5800   -0.5950 ca        1 MOL     -0.181770
    133 C47       -11.5360    2.2540    0.5780 ca        1 MOL      0.262941
    134 O20       -12.8220    2.1870    1.1120 oh        1 MOL     -0.524445
    135 H56        -5.1510    3.4560   -1.6170 hn        1 MOL      0.271420
    136 H57        -6.5930    2.8680    0.6800 h1        1 MOL      0.079697
    137 H58        -7.6550    2.8400   -2.1190 hc        1 MOL      0.090617
    138 H59        -7.4620    4.2010   -0.9470 hc        1 MOL      0.090617
    139 H60        -8.8070    4.2850    1.1600 ha        1 MOL      0.148530
    140 H61        -9.3160    1.4270   -1.9470 ha        1 MOL      0.148530
    141 H62       -11.0250    3.8110    2.0610 ha        1 MOL      0.123748
    142 H63       -11.6830    0.8810   -1.0980 ha        1 MOL      0.123748
    143 H64       -13.2650    1.4390    0.7060 ho        1 MOL      0.385960
    144 N13        -6.2990    0.2020   -1.3030 n         1 MOL     -0.248063
    145 C48        -6.5230   -1.2370   -1.3020 c3        1 MOL     -0.035755
    146 C49        -5.8370   -1.9790   -0.0870 c         1 MOL      0.345408
    147 O21        -6.3940   -2.8410    0.5670 o         1 MOL     -0.520306
    148 C50        -6.0130   -1.8960   -2.6030 c3        1 MOL      0.080818
    149 C51        -6.6340   -3.2390   -2.8440 c3        1 MOL     -0.358166
    150 C52        -6.2950   -3.7310   -4.2360 c         1 MOL      0.726303
    151 O22        -5.1560   -4.2650   -4.4960 o         1 MOL     -0.746241
    152 O23        -7.1510   -3.6690   -5.1420 o         1 MOL     -0.746241
    153 H65        -5.8020    0.6680   -2.0470 hn        1 MOL      0.184714
    154 H66        -7.5920   -1.4620   -1.2150 h1        1 MOL      0.082188
    155 H67        -4.9260   -2.0270   -2.6070 hc        1 MOL      0.027341
    156 H68        -6.3870   -1.2350   -3.3850 hc        1 MOL      0.027341
    157 H69        -7.7230   -3.1780   -2.7770 hc        1 MOL      0.065162
    158 H70        -6.2270   -3.8840   -2.0670 hc        1 MOL      0.065162
    159 N14        -4.6160   -1.4890    0.2670 n         1 MOL     -0.029127
    160 C53        -3.7410   -1.9660    1.3890 c3        1 MOL     -0.173291
    161 C54        -4.2330   -1.3910    2.7460 c         1 MOL      0.421394
    162 O24        -3.8720   -1.9150    3.7980 o         1 MOL     -0.558432
    163 C55        -2.3370   -1.3820    1.0730 c3        1 MOL      0.021751
    164 C56        -1.5380   -2.0570   -0.0430 c3        1 MOL      0.051339
    165 C57        -0.2280   -1.3010   -0.2630 c         1 MOL      0.873768
    166 O25         0.7940   -1.8330    0.1370 o         1 MOL     -0.799780
    167 O26        -0.1730   -0.1440   -0.7130 o         1 MOL     -0.799780
    168 H71        -4.3600   -0.6680   -0.2570 hn        1 MOL      0.175215
    169 H72        -3.5850   -3.0380    1.3570 h1        1 MOL      0.139019
    170 H73        -1.7980   -1.4680    2.0230 hc        1 MOL      0.062987
    171 H74        -2.4910   -0.3370    0.8260 hc        1 MOL      0.062987
    172 H75        -2.1730   -1.9730   -0.9200 hc        1 MOL     -0.084358
    173 H76        -1.4260   -3.0730    0.3160 hc        1 MOL     -0.084358
    174 N15        -5.1250   -0.4000    2.7950 n         1 MOL      0.050216
    175 C58        -5.8610    0.2200    3.9450 c3        1 MOL     -0.231526
    176 H77        -5.2330    0.1910    4.8360 h1        1 MOL      0.088475
    177 H78        -6.1020    1.2560    3.7070 h1        1 MOL      0.088475
    178 H79        -6.7800   -0.3340    4.1310 h1        1 MOL      0.088475
    179 H80        -5.2820   -0.1150    1.8430 hn        1 MOL     -0.065148
    180 Ca1         2.3920    0.1470   -1.2220 Ca        1 MOL      1.761778
    181 O27         1.8460    2.7150   -1.9910 oh        1 MOL     -0.830430
    182 H81         2.5830    2.6470   -2.5930 ho        1 MOL      0.394753
    183 H82         1.0970    2.9380   -2.5350 ho        1 MOL      0.394753
    184 O28         0.7120    0.2000   -3.5420 oh        1 MOL     -0.830430
    185 H83         0.7840   -0.7610   -3.5680 ho        1 MOL      0.394753
    186 H84         0.5100    0.4460   -4.4380 ho        1 MOL      0.394753
@<TRIPOS>BOND
     1    1    2 1   
     2    1    4 1   
     3    1    5 1   
     4    1    6 1   
     5    2    3 2   
     6    2    7 1   
     7    7    8 1   
     8    7   15 1   
     9    8    9 1   
    10    8   11 1   
    11    8   16 1   
    12    9   10 2   
    13    9   19 1   
    14   11   12 1   
    15   11   17 1   
    16   11   18 1   
    17   12   13 1   
    18   12   14 1   
    19   19   20 1   
    20   19   27 1   
    21   20   21 1   
    22   20   23 1   
    23   20   28 1   
    24   21   22 2   
    25   21   38 1   
    26   23   24 1   
    27   23   25 1   
    28   23   29 1   
    29   24   26 1   
    30   24   30 1   
    31   24   31 1   
    32   25   32 1   
    33   25   33 1   
    34   25   34 1   
    35   26   35 1   
    36   26   36 1   
    37   26   37 1   
    38   38   39 1   
    39   38   46 1   
    40   39   40 1   
    41   39   42 1   
    42   39   47 1   
    43   40   41 2   
    44   40   50 1   
    45   42   43 1   
    46   42   48 1   
    47   42   49 1   
    48   43   44 1   
    49   43   45 1   
    50   50   51 1   
    51   50   54 1   
    52   51   52 1   
    53   51   55 1   
    54   51   56 1   
    55   52   53 2   
    56   52   57 1   
    57   57   58 1   
    58   57   65 1   
    59   58   59 1   
    60   58   61 1   
    61   58   66 1   
    62   59   60 2   
    63   59   69 1   
    64   61   62 1   
    65   61   67 1   
    66   61   68 1   
    67   62   63 1   
    68   62   64 1   
    69   69   70 1   
    70   69   73 1   
    71   70   71 1   
    72   70   74 1   
    73   70   75 1   
    74   71   72 2   
    75   71   76 1   
    76   76   77 1   
    77   76   85 1   
    78   77   78 1   
    79   77   80 1   
    80   77   86 1   
    81   78   79 2   
    82   78   93 1   
    83   80   81 1   
    84   80   87 1   
    85   80   88 1   
    86   81   82 1   
    87   81   89 1   
    88   81   90 1   
    89   82   83 1   
    90   82   84 2   
    91   83   91 1   
    92   83   92 1   
    93   93   94 1   
    94   93  100 1   
    95   94   95 1   
    96   94   97 1   
    97   94  101 1   
    98   95   96 2   
    99   95  109 1   
   100   97   98 1   
   101   97   99 1   
   102   97  102 1   
   103   98  103 1   
   104   98  104 1   
   105   98  105 1   
   106   99  106 1   
   107   99  107 1   
   108   99  108 1   
   109  109  110 1   
   110  109  117 1   
   111  110  111 1   
   112  110  113 1   
   113  110  118 1   
   114  111  112 2   
   115  111  123 1   
   116  113  114 1   
   117  113  119 1   
   118  113  120 1   
   119  114  115 1   
   120  114  116 2   
   121  115  121 1   
   122  115  122 1   
   123  123  124 1   
   124  123  135 1   
   125  124  125 1   
   126  124  127 1   
   127  124  136 1   
   128  125  126 2   
   129  125  144 1   
   130  127  128 1   
   131  127  137 1   
   132  127  138 1   
   133  128  129 ar  
   134  128  130 ar  
   135  129  131 ar  
   136  129  139 1   
   137  130  132 ar  
   138  130  140 1   
   139  131  133 ar  
   140  131  141 1   
   141  132  133 ar  
   142  132  142 1   
   143  133  134 1   
   144  134  143 1   
   145  144  145 1   
   146  144  153 1   
   147  145  146 1   
   148  145  148 1   
   149  145  154 1   
   150  146  147 2   
   151  146  159 1   
   152  148  149 1   
   153  148  155 1   
   154  148  156 1   
   155  149  150 1   
   156  149  157 1   
   157  149  158 1   
   158  150  151 1   
   159  150  152 1   
   160  159  160 1   
   161  159  168 1   
   162  160  161 1   
   163  160  163 1   
   164  160  169 1   
   165  161  162 2   
   166  161  174 1   
   167  163  164 1   
   168  163  170 1   
   169  163  171 1   
   170  164  165 1   
   171  164  172 1   
   172  164  173 1   
   173  165  166 1   
   174  165  167 1   
   175  174  175 1   
   176  174  179 1   
   177  175  176 1   
   178  175  177 1   
   179  175  178 1   
   180  181  182 1   
   181  181  183 1   
   182  184  185 1   
   183  184  186 1   
@<TRIPOS>SUBSTRUCTURE
     1 MOL         1 TEMP              0 ****  ****    0 ROOT
