@<TRIPOS>MOLECULE
MOL
  189   185     1     0     0
SMALL
resp


@<TRIPOS>ATOM
      1 C1          0.5080    2.3790    5.4070 c3        1 MOL     -0.439944
      2 C2         -0.0690    2.4960    3.9760 c         1 MOL      0.594333
      3 O1          0.7120    2.9230    3.1090 o         1 MOL     -0.514183
      4 H1          1.0570    3.2880    5.6520 hc        1 MOL      0.117143
      5 H2         -0.3080    2.2460    6.1180 hc        1 MOL      0.117143
      6 H3          1.1800    1.5230    5.4600 hc        1 MOL      0.117143
      7 N1         -1.2680    1.9540    3.8470 n         1 MOL     -0.536388
      8 C3         -1.9480    1.6880    2.5480 c3        1 MOL      0.269891
      9 C4         -2.3970    2.9990    1.8530 c         1 MOL      0.259852
     10 O2         -3.5840    3.3980    1.8450 o         1 MOL     -0.437699
     11 C5         -3.1700    0.7460    2.8380 c3        1 MOL     -0.045056
     12 C6         -3.9440    0.3090    1.5820 c         1 MOL      0.564485
     13 O3         -5.1230   -0.0430    1.7530 o         1 MOL     -0.652341
     14 O4         -3.3840    0.0770    0.5040 o         1 MOL     -0.652341
     15 H4         -1.6260    1.5170    4.6750 hn        1 MOL      0.325527
     16 H5         -1.2460    1.1670    1.8780 h1        1 MOL     -0.027707
     17 H6         -3.8040    1.3480    3.4880 hc        1 MOL      0.008935
     18 H7         -2.8360   -0.0530    3.4990 hc        1 MOL      0.008935
     19 N2         -1.4370    3.8230    1.4920 n         1 MOL     -0.288353
     20 C7         -1.6190    5.1550    0.9110 c3        1 MOL      0.004759
     21 C8         -2.4830    5.1940   -0.3660 c         1 MOL      0.580992
     22 O5         -2.9710    6.2730   -0.6840 o         1 MOL     -0.585704
     23 C9         -0.2300    5.7730    0.6180 c3        1 MOL     -0.327661
     24 C10         0.3550    6.3360    1.9710 c3        1 MOL      0.484044
     25 C11         1.6950    7.0300    1.6910 c3        1 MOL     -0.106517
     26 C12         2.2510    7.5950    3.0080 c3        1 MOL     -0.017945
     27 N3          1.5010    8.7990    3.4920 n4        1 MOL     -0.463225
     28 H8         -0.5420    3.3890    1.6300 hn        1 MOL      0.324175
     29 H9         -2.2040    5.7120    1.6530 h1        1 MOL      0.073691
     30 H10        -0.5290    6.6040   -0.0220 hc        1 MOL      0.078997
     31 H11         0.4950    5.0550    0.2340 hc        1 MOL      0.078997
     32 H12         0.4220    5.5180    2.6820 hc        1 MOL     -0.127644
     33 H13        -0.3110    7.1440    2.2840 hc        1 MOL     -0.127644
     34 H14         1.5600    7.8390    0.9700 hc        1 MOL      0.042638
     35 H15         2.4480    6.3090    1.3810 hc        1 MOL      0.042638
     36 H16         3.2830    7.8410    2.7470 hx        1 MOL      0.111574
     37 H17         2.3570    6.7890    3.7310 hx        1 MOL      0.111574
     38 H18         2.0640    9.4400    4.0360 hn        1 MOL      0.356463
     39 H19         1.1490    9.3190    2.7010 hn        1 MOL      0.356463
     40 H20         0.6720    8.4930    3.9760 hn        1 MOL      0.356463
     41 N4         -2.8900    4.0320   -1.0010 n         1 MOL     -0.418329
     42 C13        -3.8720    4.0550   -2.0880 c3        1 MOL      0.130908
     43 C14        -5.0970    3.1680   -1.7780 c         1 MOL      0.331278
     44 O6         -5.7800    2.6770   -2.6800 o         1 MOL     -0.509159
     45 C15        -3.2730    3.7360   -3.4150 c3        1 MOL     -0.190447
     46 C16        -2.5280    2.4100   -3.3890 c         1 MOL      0.860804
     47 O7         -1.6520    2.3300   -4.2900 o         1 MOL     -0.760640
     48 O8         -2.7610    1.4990   -2.5870 o         1 MOL     -0.760640
     49 H21        -2.3840    3.1940   -0.7650 hn        1 MOL      0.251989
     50 H22        -4.3060    5.0470   -2.2000 h1        1 MOL      0.081056
     51 H23        -2.4890    4.4450   -3.6960 hc        1 MOL      0.031600
     52 H24        -4.0580    3.8390   -4.1700 hc        1 MOL      0.031600
     53 N5         -5.3440    2.8400   -0.5380 n         1 MOL     -0.172527
     54 C17        -6.5660    2.2690    0.0420 c3        1 MOL      0.001343
     55 C18        -7.2710    1.0430   -0.6340 c         1 MOL      0.403460
     56 O9         -8.5210    0.9350   -0.6810 o         1 MOL     -0.584423
     57 H25        -4.8840    3.2970    0.2360 hn        1 MOL      0.164306
     58 H26        -7.3470    3.0250    0.0000 h1        1 MOL      0.043843
     59 H27        -6.4220    2.1980    1.1190 h1        1 MOL      0.043843
     60 N6         -6.4700    0.1130   -1.1030 n         1 MOL     -0.053473
     61 C19        -6.9870   -1.1530   -1.6610 c3        1 MOL     -0.167832
     62 C20        -6.9700   -2.3220   -0.7120 c         1 MOL      0.397596
     63 O10        -7.2750   -3.4290   -1.1580 o         1 MOL     -0.530209
     64 C21        -6.3050   -1.4860   -3.0360 c3        1 MOL     -0.031463
     65 C22        -4.7910   -1.5610   -2.8030 c         1 MOL      0.619627
     66 O11        -4.0750   -1.1510   -3.7330 o         1 MOL     -0.636545
     67 O12        -4.3460   -2.1790   -1.7590 o         1 MOL     -0.636545
     68 H28        -5.4660    0.2250   -1.0330 hn        1 MOL      0.151293
     69 H29        -8.0430   -1.1000   -1.9380 h1        1 MOL      0.140030
     70 H30        -6.5200   -0.8170   -3.8630 hc        1 MOL      0.028647
     71 H31        -6.6830   -2.4720   -3.3010 hc        1 MOL      0.028647
     72 N7         -6.6280   -2.1080    0.5740 n         1 MOL     -0.125330
     73 C23        -6.5930   -3.1060    1.6350 c3        1 MOL     -0.273815
     74 C24        -5.3730   -3.9620    1.6760 c         1 MOL      0.629318
     75 O13        -5.3790   -4.9450    2.4170 o         1 MOL     -0.587083
     76 H32        -6.4310   -1.1570    0.8540 hn        1 MOL      0.206592
     77 H33        -7.4760   -3.7340    1.5370 h1        1 MOL      0.114642
     78 H34        -6.5170   -2.5290    2.5570 h1        1 MOL      0.114642
     79 N8         -4.2680   -3.6950    0.9350 n         1 MOL     -0.221345
     80 C25        -3.0350   -4.4830    0.9480 c3        1 MOL     -0.420098
     81 C26        -1.8120   -3.5920    1.0390 c         1 MOL      0.971667
     82 O14        -1.7110   -2.6640    0.2420 o         1 MOL     -0.758406
     83 C27        -2.9370   -5.4370   -0.2440 c3        1 MOL      0.398039
     84 C28        -4.0210   -6.5110   -0.3630 c3        1 MOL     -0.450940
     85 O15        -2.9950   -4.7110   -1.4690 oh        1 MOL     -0.595368
     86 H35        -4.3650   -2.9400    0.2720 hn        1 MOL      0.200900
     87 H36        -3.0790   -5.0950    1.8510 h1        1 MOL      0.133793
     88 H37        -1.9490   -5.8830   -0.2240 h1        1 MOL      0.030985
     89 H38        -3.5970   -3.9620   -1.4760 ho        1 MOL      0.382537
     90 H39        -4.0290   -7.1340    0.5360 hc        1 MOL      0.122829
     91 H40        -5.0610   -6.2130   -0.4830 hc        1 MOL      0.122829
     92 H41        -3.8750   -7.1930   -1.2050 hc        1 MOL      0.122829
     93 N9         -0.8520   -3.9060    1.9010 n         1 MOL     -0.801662
     94 C29         0.4740   -3.2650    2.0070 c3        1 MOL      0.009001
     95 C30         1.4760   -3.8390    1.0190 c         1 MOL      0.672681
     96 O16         1.6730   -5.0550    1.0050 o         1 MOL     -0.591556
     97 C31         1.0560   -3.3710    3.4600 c3        1 MOL      0.329077
     98 C32        -0.0130   -3.0120    4.4880 c3        1 MOL      0.357929
     99 C33         2.2530   -2.3990    3.6770 c3        1 MOL     -0.758852
    100 C34         0.3890   -3.0740    5.9910 c3        1 MOL     -0.294018
    101 H42        -1.0340   -4.7450    2.4190 hn        1 MOL      0.353274
    102 H43         0.3160   -2.2200    1.7580 h1        1 MOL      0.114626
    103 H44         1.4170   -4.3820    3.6660 hc        1 MOL     -0.051199
    104 H45        -0.7530   -3.8100    4.4580 hc        1 MOL     -0.085971
    105 H46        -0.5070   -2.0810    4.2260 hc        1 MOL     -0.085971
    106 H47         1.8060   -1.4010    3.7260 hc        1 MOL      0.161989
    107 H48         2.6970   -2.6120    4.6440 hc        1 MOL      0.161989
    108 H49         2.9580   -2.5520    2.8580 hc        1 MOL      0.161989
    109 H50         0.8500   -2.1680    6.3800 hc        1 MOL      0.060079
    110 H51        -0.5300   -3.2850    6.5320 hc        1 MOL      0.060079
    111 H52         1.0510   -3.9370    6.1410 hc        1 MOL      0.060079
    112 N10         2.0780   -3.0240    0.1650 n         1 MOL     -0.231199
    113 C35         3.3370   -3.2530   -0.5900 c3        1 MOL     -0.062913
    114 C36         4.6190   -3.0150    0.1100 c         1 MOL      0.389183
    115 O17         4.6370   -2.2500    1.0730 o         1 MOL     -0.287140
    116 C37         3.3650   -2.5120   -1.9070 c3        1 MOL      0.062887
    117 C38         2.3210   -3.1340   -2.8670 c3        1 MOL     -0.366257
    118 O18         2.9900   -1.1550   -1.8200 oh        1 MOL     -0.513452
    119 H53         1.8050   -2.0640    0.0390 hn        1 MOL      0.137247
    120 H54         3.4530   -4.2890   -0.9280 h1        1 MOL      0.074761
    121 H55         4.3590   -2.5650   -2.3680 h1        1 MOL      0.114015
    122 H56         2.0340   -1.1720   -1.7110 ho        1 MOL      0.394986
    123 H57         2.4620   -2.7520   -3.8710 hc        1 MOL      0.111623
    124 H58         2.5180   -4.2110   -2.9210 hc        1 MOL      0.111623
    125 H59         1.3190   -3.0070   -2.4650 hc        1 MOL      0.111623
    126 N11         5.7480   -3.6180   -0.3930 n         1 MOL     -0.344458
    127 C39         7.0540   -3.1140   -0.0930 c3        1 MOL     -0.261990
    128 C40         7.2320   -1.6050   -0.2270 c         1 MOL      0.416259
    129 O19         7.8980   -1.0170    0.6520 o         1 MOL     -0.486444
    130 C41         8.2050   -3.7450   -0.9160 c3        1 MOL      0.316698
    131 C42         8.3300   -5.2990   -0.7440 c3        1 MOL     -0.325487
    132 O20         7.9690   -3.5570   -2.2220 oh        1 MOL     -0.616411
    133 H60         5.6400   -4.1670   -1.2370 hn        1 MOL      0.314927
    134 H61         7.1670   -3.3080    0.9830 h1        1 MOL      0.169291
    135 H62         9.1450   -3.2840   -0.6350 h1        1 MOL      0.047603
    136 H63         8.7890   -3.5260   -2.7040 ho        1 MOL      0.417775
    137 H64         9.2190   -5.6650   -1.2660 hc        1 MOL      0.091573
    138 H65         8.5220   -5.5550    0.3030 hc        1 MOL      0.091573
    139 H66         7.4190   -5.7990   -1.0740 hc        1 MOL      0.091573
    140 N12         6.7020   -0.9120   -1.2610 n         1 MOL     -0.194051
    141 C43         6.8380    0.5620   -1.4590 c3        1 MOL     -0.150688
    142 C44         6.0870    1.3130   -0.3690 c         1 MOL      0.466625
    143 O21         6.5260    2.3900    0.0780 o         1 MOL     -0.529833
    144 C45         6.2010    0.7890   -2.8120 c3        1 MOL      0.037269
    145 C46         6.4300    2.1450   -3.3670 c3        1 MOL     -0.132081
    146 C47         5.6590    2.5240   -4.6580 c3        1 MOL      0.009526
    147 C48         6.0060    3.9360   -5.0290 c3        1 MOL      0.086465
    148 N13         5.3390    4.2220   -6.2710 n4        1 MOL     -0.436961
    149 H67         6.2390   -1.4700   -1.9610 hn        1 MOL      0.165377
    150 H68         7.8900    0.8290   -1.3250 h1        1 MOL      0.130174
    151 H69         5.1350    0.5700   -2.7230 hc        1 MOL      0.030858
    152 H70         6.6490    0.1530   -3.5860 hc        1 MOL      0.030858
    153 H71         7.4930    2.2490   -3.5900 hc        1 MOL      0.046672
    154 H72         6.1040    2.7920   -2.5470 hc        1 MOL      0.046672
    155 H73         4.5930    2.3970   -4.4510 hc        1 MOL      0.037055
    156 H74         5.8290    1.8950   -5.5330 hc        1 MOL      0.037055
    157 H75         7.0850    4.0480   -5.1160 hx        1 MOL      0.078403
    158 H76         5.8460    4.6760   -4.2440 hx        1 MOL      0.078403
    159 H77         5.4600    5.2100   -6.4610 hn        1 MOL      0.347078
    160 H78         5.6660    3.6960   -7.0660 hn        1 MOL      0.347078
    161 H79         4.3360    4.1400   -6.2710 hn        1 MOL      0.347078
    162 N14         4.9110    0.7810    0.0670 n         1 MOL     -0.012753
    163 C49         4.1000    1.3160    1.2240 c3        1 MOL     -0.273775
    164 C50         4.7560    1.1480    2.5090 c         1 MOL      0.536478
    165 O22         4.7390    2.0860    3.3640 o         1 MOL     -0.576729
    166 C51         2.6350    0.7420    1.1880 c3        1 MOL      0.111196
    167 C52         1.8300    1.3620    0.0680 c3        1 MOL     -0.443599
    168 C53         0.5150    0.6070   -0.2650 c         1 MOL      0.906008
    169 O23         0.5420   -0.5360   -0.7180 o         1 MOL     -0.768815
    170 O24        -0.5170    1.2280   -0.3830 o         1 MOL     -0.768815
    171 H80         4.6220   -0.1480   -0.2130 hn        1 MOL      0.039840
    172 H81         4.0170    2.3790    1.0060 h1        1 MOL      0.134276
    173 H82         2.1160    0.8640    2.1410 hc        1 MOL      0.032258
    174 H83         2.7460   -0.3330    1.0490 hc        1 MOL      0.032258
    175 H84         2.4080    1.3380   -0.8490 hc        1 MOL      0.109213
    176 H85         1.6330    2.3580    0.4710 hc        1 MOL      0.109213
    177 N15         5.4470    0.0170    2.7680 n         1 MOL     -0.189101
    178 C54         6.4080   -0.1370    3.9030 c3        1 MOL     -0.210816
    179 H86         6.7170    0.8480    4.2520 h1        1 MOL      0.094799
    180 H87         5.9250   -0.6770    4.7180 h1        1 MOL      0.094799
    181 H88         7.2820   -0.6940    3.5660 h1        1 MOL      0.094799
    182 H89         5.5390   -0.6770    2.0450 hn        1 MOL      0.174240
    183 Ca1        -1.9320   -0.7970   -1.4750 Ca        1 MOL      1.775262
    184 O25        -1.2870   -3.1850   -2.6790 oh        1 MOL     -0.853257
    185 H90        -1.5720   -3.9440   -2.1680 ho        1 MOL      0.394715
    186 H91        -0.9280   -3.5700   -3.4870 ho        1 MOL      0.394715
    187 O26        -0.4160   -0.3940   -3.7290 oh        1 MOL     -0.853257
    188 H92         0.4350   -0.5110   -4.1520 ho        1 MOL      0.394715
    189 H93        -0.8060    0.3450   -4.2010 ho        1 MOL      0.394715
@<TRIPOS>BOND
     1    1    2 1   
     2    1    4 1   
     3    1    5 1   
     4    1    6 1   
     5    2    3 2   
     6    2    7 1   
     7    7    8 1   
     8    7   15 1   
     9    8    9 1   
    10    8   11 1   
    11    8   16 1   
    12    9   10 2   
    13    9   19 1   
    14   11   12 1   
    15   11   17 1   
    16   11   18 1   
    17   12   13 1   
    18   12   14 1   
    19   19   20 1   
    20   19   28 1   
    21   20   21 1   
    22   20   23 1   
    23   20   29 1   
    24   21   22 2   
    25   21   41 1   
    26   23   24 1   
    27   23   30 1   
    28   23   31 1   
    29   24   25 1   
    30   24   32 1   
    31   24   33 1   
    32   25   26 1   
    33   25   34 1   
    34   25   35 1   
    35   26   27 1   
    36   26   36 1   
    37   26   37 1   
    38   27   38 1   
    39   27   39 1   
    40   27   40 1   
    41   41   42 1   
    42   41   49 1   
    43   42   43 1   
    44   42   45 1   
    45   42   50 1   
    46   43   44 2   
    47   43   53 1   
    48   45   46 1   
    49   45   51 1   
    50   45   52 1   
    51   46   47 1   
    52   46   48 1   
    53   53   54 1   
    54   53   57 1   
    55   54   55 1   
    56   54   58 1   
    57   54   59 1   
    58   55   56 2   
    59   55   60 1   
    60   60   61 1   
    61   60   68 1   
    62   61   62 1   
    63   61   64 1   
    64   61   69 1   
    65   62   63 2   
    66   62   72 1   
    67   64   65 1   
    68   64   70 1   
    69   64   71 1   
    70   65   66 1   
    71   65   67 1   
    72   72   73 1   
    73   72   76 1   
    74   73   74 1   
    75   73   77 1   
    76   73   78 1   
    77   74   75 2   
    78   74   79 1   
    79   79   80 1   
    80   79   86 1   
    81   80   81 1   
    82   80   83 1   
    83   80   87 1   
    84   81   82 2   
    85   81   93 1   
    86   83   84 1   
    87   83   85 1   
    88   83   88 1   
    89   84   90 1   
    90   84   91 1   
    91   84   92 1   
    92   85   89 1   
    93   93   94 1   
    94   93  101 1   
    95   94   95 1   
    96   94   97 1   
    97   94  102 1   
    98   95   96 2   
    99   95  112 1   
   100   97   98 1   
   101   97   99 1   
   102   97  103 1   
   103   98  100 1   
   104   98  104 1   
   105   98  105 1   
   106   99  106 1   
   107   99  107 1   
   108   99  108 1   
   109  100  109 1   
   110  100  110 1   
   111  100  111 1   
   112  112  113 1   
   113  112  119 1   
   114  113  114 1   
   115  113  116 1   
   116  113  120 1   
   117  114  115 2   
   118  114  126 1   
   119  116  117 1   
   120  116  118 1   
   121  116  121 1   
   122  117  123 1   
   123  117  124 1   
   124  117  125 1   
   125  118  122 1   
   126  126  127 1   
   127  126  133 1   
   128  127  128 1   
   129  127  130 1   
   130  127  134 1   
   131  128  129 2   
   132  128  140 1   
   133  130  131 1   
   134  130  132 1   
   135  130  135 1   
   136  131  137 1   
   137  131  138 1   
   138  131  139 1   
   139  132  136 1   
   140  140  141 1   
   141  140  149 1   
   142  141  142 1   
   143  141  144 1   
   144  141  150 1   
   145  142  143 2   
   146  142  162 1   
   147  144  145 1   
   148  144  151 1   
   149  144  152 1   
   150  145  146 1   
   151  145  153 1   
   152  145  154 1   
   153  146  147 1   
   154  146  155 1   
   155  146  156 1   
   156  147  148 1   
   157  147  157 1   
   158  147  158 1   
   159  148  159 1   
   160  148  160 1   
   161  148  161 1   
   162  162  163 1   
   163  162  171 1   
   164  163  164 1   
   165  163  166 1   
   166  163  172 1   
   167  164  165 2   
   168  164  177 1   
   169  166  167 1   
   170  166  173 1   
   171  166  174 1   
   172  167  168 1   
   173  167  175 1   
   174  167  176 1   
   175  168  169 1   
   176  168  170 1   
   177  177  178 1   
   178  177  182 1   
   179  178  179 1   
   180  178  180 1   
   181  178  181 1   
   182  184  185 1   
   183  184  186 1   
   184  187  188 1   
   185  187  189 1   
@<TRIPOS>SUBSTRUCTURE
     1 MOL         1 TEMP              0 ****  ****    0 ROOT
