@<TRIPOS>MOLECULE
MOL
  183   181     1     0     0
SMALL
resp


@<TRIPOS>ATOM
      1 C1         -0.6240    1.1170    6.4400 c3        1 MOL     -0.340755
      2 C2         -1.0360    1.3060    4.9330 c         1 MOL      0.882871
      3 O1         -0.2520    1.7260    4.1260 o         1 MOL     -0.641416
      4 H1          0.4450    0.9110    6.5010 hc        1 MOL      0.073713
      5 H2         -0.8500    2.0270    6.9950 hc        1 MOL      0.073713
      6 H3         -1.1780    0.2830    6.8680 hc        1 MOL      0.073713
      7 N1         -2.3200    1.1140    4.5970 n         1 MOL     -0.859480
      8 C3         -2.9260    1.2660    3.2730 c3        1 MOL      0.558401
      9 C4         -3.2570    2.7440    2.9870 c         1 MOL      0.313571
     10 O2         -3.9750    3.4190    3.7390 o         1 MOL     -0.549136
     11 C5         -4.1190    0.3350    3.1410 c3        1 MOL     -0.162124
     12 C6         -4.6570    0.1840    1.7470 c         1 MOL      0.800945
     13 O3         -5.7800   -0.3320    1.6120 o         1 MOL     -0.688290
     14 O4         -3.9830    0.6510    0.8590 o         1 MOL     -0.688290
     15 H4         -2.9400    1.0960    5.3900 hn        1 MOL      0.333341
     16 H5         -2.1560    0.9480    2.5700 h1        1 MOL     -0.016978
     17 H6         -4.8710    0.7430    3.8200 hc        1 MOL     -0.006307
     18 H7         -3.8520   -0.6550    3.4950 hc        1 MOL     -0.006307
     19 N2         -2.7840    3.1880    1.8180 n         1 MOL     -0.115148
     20 C7         -2.9350    4.5720    1.3630 c3        1 MOL     -0.009948
     21 C8         -4.0810    4.6510    0.3690 c         1 MOL      0.508932
     22 O5         -4.9670    5.5150    0.4590 o         1 MOL     -0.594109
     23 C9         -1.6060    5.1750    0.8840 c3        1 MOL      0.178536
     24 C10        -0.4870    4.8790    1.9380 c3        1 MOL      0.106621
     25 C11        -1.7560    6.6400    0.4600 c3        1 MOL     -0.161093
     26 C12         0.7880    5.6390    1.6970 c3        1 MOL     -0.049349
     27 H8         -2.2880    2.6190    1.1570 hn        1 MOL      0.094063
     28 H9         -3.2560    5.1300    2.2450 h1        1 MOL      0.037510
     29 H10        -1.3370    4.7050   -0.0630 hc        1 MOL      0.005985
     30 H11        -0.2650    3.8080    1.9540 hc        1 MOL     -0.036910
     31 H12        -0.9060    5.1830    2.8990 hc        1 MOL     -0.036910
     32 H13        -0.8980    7.0370   -0.0730 hc        1 MOL      0.018895
     33 H14        -2.6740    6.7520   -0.1170 hc        1 MOL      0.018895
     34 H15        -1.9800    7.2350    1.3460 hc        1 MOL      0.018895
     35 H16         1.3930    5.4930    2.5850 hc        1 MOL     -0.001820
     36 H17         1.3610    5.1980    0.8860 hc        1 MOL     -0.001820
     37 H18         0.5580    6.7100    1.6470 hc        1 MOL     -0.001820
     38 N3         -4.2200    3.6960   -0.5620 n         1 MOL     -0.292673
     39 C13        -5.0190    3.7970   -1.7660 c3        1 MOL      0.063239
     40 C14        -6.2370    2.8220   -1.6630 c         1 MOL      0.360382
     41 O6         -7.1920    2.7370   -2.4550 o         1 MOL     -0.529535
     42 C15        -4.1760    3.7130   -3.0730 c3        1 MOL     -0.243253
     43 C16        -3.4600    2.3920   -3.2320 c         1 MOL      0.884349
     44 O7         -2.7990    2.0870   -4.2830 o         1 MOL     -0.758074
     45 O8         -3.5540    1.5150   -2.4070 o         1 MOL     -0.758074
     46 H19        -3.6070    2.9040   -0.4500 hn        1 MOL      0.191015
     47 H20        -5.5140    4.7750   -1.6860 h1        1 MOL      0.080462
     48 H21        -3.4510    4.5110   -3.2110 hc        1 MOL      0.053725
     49 H22        -4.8120    3.8660   -3.9510 hc        1 MOL      0.053725
     50 N4         -6.3450    2.0590   -0.5530 n         1 MOL      0.012143
     51 C17        -7.5310    1.5040   -0.0940 c3        1 MOL     -0.397597
     52 C18        -7.9160    0.2770   -0.8750 c         1 MOL      0.679367
     53 O9         -8.9990    0.0150   -1.3130 o         1 MOL     -0.641773
     54 H23        -5.5850    2.1450    0.1100 hn        1 MOL      0.143298
     55 H24        -8.3090    2.2610   -0.2300 h1        1 MOL      0.124194
     56 H25        -7.4180    1.2310    0.9530 h1        1 MOL      0.124194
     57 N5         -7.0000   -0.6650   -0.9510 n         1 MOL     -0.202066
     58 C19        -7.1590   -2.0260   -1.5790 c3        1 MOL      0.089765
     59 C20        -6.9850   -3.2650   -0.6340 c         1 MOL      0.347631
     60 O10        -7.0720   -4.4630   -1.0620 o         1 MOL     -0.535885
     61 C21        -6.3230   -2.1260   -2.8880 c3        1 MOL     -0.140513
     62 C22        -4.7790   -1.9810   -2.6490 c         1 MOL      0.679225
     63 O11        -3.9020   -1.9420   -3.5840 o         1 MOL     -0.694797
     64 O12        -4.3030   -1.9690   -1.4830 o         1 MOL     -0.694797
     65 H26        -6.1330   -0.4700   -0.4650 hn        1 MOL     -0.034079
     66 H27        -8.1840   -2.1560   -1.9160 h1        1 MOL      0.071948
     67 H28        -6.7070   -1.4110   -3.6150 hc        1 MOL      0.035385
     68 H29        -6.4580   -3.1060   -3.3350 hc        1 MOL      0.035385
     69 N6         -6.6670   -2.9340    0.6350 n         1 MOL     -0.216094
     70 C23        -6.4170   -3.8350    1.7240 c3        1 MOL     -0.029012
     71 C24        -5.0900   -4.5790    1.6640 c         1 MOL      0.504745
     72 O13        -4.9730   -5.6550    2.2550 o         1 MOL     -0.601215
     73 H30        -6.4750   -1.9510    0.7650 hn        1 MOL      0.187502
     74 H31        -7.2260   -4.5470    1.8490 h1        1 MOL      0.049231
     75 H32        -6.3360   -3.2960    2.6710 h1        1 MOL      0.049231
     76 N7         -4.1030   -4.0520    0.9760 n         1 MOL     -0.145058
     77 C25        -2.7550   -4.4680    1.0350 c3        1 MOL     -0.095594
     78 C26        -1.7950   -3.3240    1.2010 c         1 MOL      0.487647
     79 O14        -2.0080   -2.1330    0.8060 o         1 MOL     -0.719620
     80 C27        -2.3070   -5.4380   -0.1380 c3        1 MOL     -0.047589
     81 C28        -2.5530   -5.0830   -1.5880 c3        1 MOL     -0.185267
     82 C29        -1.5800   -4.1520   -2.1940 c         1 MOL      0.680301
     83 N8         -0.8830   -4.5010   -3.2190 n         1 MOL     -0.831165
     84 O15        -1.3970   -3.0010   -1.7540 o         1 MOL     -0.570279
     85 H33        -4.3170   -3.2390    0.4100 hn        1 MOL      0.223841
     86 H34        -2.7120   -5.0390    1.9590 h1        1 MOL      0.062024
     87 H35        -2.8000   -6.4050   -0.0990 hc        1 MOL      0.027853
     88 H36        -1.2680   -5.7120    0.0200 hc        1 MOL      0.027853
     89 H37        -3.6010   -4.8410   -1.7720 hc        1 MOL      0.080970
     90 H38        -2.4280   -5.9990   -2.1710 hc        1 MOL      0.080970
     91 H39        -1.2750   -5.1830   -3.8550 hn        1 MOL      0.363307
     92 H40        -0.1710   -3.8790   -3.5890 hn        1 MOL      0.363307
     93 N9         -0.6470   -3.6070    1.7160 n         1 MOL     -0.183337
     94 C30         0.4620   -2.7120    1.8560 c3        1 MOL      0.032427
     95 C31         1.5590   -3.1390    0.9220 c         1 MOL      0.264454
     96 O16         2.2930   -4.0610    1.2300 o         1 MOL     -0.518688
     97 C32         0.9880   -2.7160    3.3400 c3        1 MOL      0.236543
     98 C33         1.9660   -1.5130    3.4550 c3        1 MOL     -0.268423
     99 C34        -0.0970   -2.6350    4.4410 c3        1 MOL     -0.268423
    100 H41        -0.5240   -4.5500    2.0270 hn        1 MOL      0.215672
    101 H42         0.1230   -1.6950    1.6810 h1        1 MOL      0.164871
    102 H43         1.5550   -3.6280    3.5600 hc        1 MOL     -0.034209
    103 H44         2.7810   -1.5510    2.7430 hc        1 MOL      0.047937
    104 H45         1.5280   -0.5280    3.3210 hc        1 MOL      0.047937
    105 H46         2.3650   -1.4860    4.4730 hc        1 MOL      0.047937
    106 H47        -0.6210   -3.5790    4.4550 hc        1 MOL      0.047937
    107 H48         0.2930   -2.4740    5.4430 hc        1 MOL      0.047937
    108 H49        -0.8090   -1.8450    4.2050 hc        1 MOL      0.047937
    109 N10         1.7950   -2.3180   -0.1650 n         1 MOL      0.002115
    110 C35         2.9070   -2.4510   -1.0900 c3        1 MOL      0.042055
    111 C36         4.1820   -1.9190   -0.4250 c         1 MOL      0.221466
    112 O17         4.0640   -1.1870    0.5060 o         1 MOL     -0.130149
    113 C37         2.4870   -1.5880   -2.2840 c3        1 MOL     -0.330890
    114 C38         3.5080   -1.6030   -3.4220 c         1 MOL      0.745956
    115 N11         3.2340   -2.5260   -4.2690 n         1 MOL     -0.812555
    116 O18         4.5680   -1.0070   -3.4550 o         1 MOL     -0.561184
    117 H50         1.0500   -1.6580   -0.3370 hn        1 MOL      0.046755
    118 H51         3.0070   -3.4980   -1.3800 h1        1 MOL      0.035106
    119 H52         2.3940   -0.5460   -1.9660 hc        1 MOL      0.112282
    120 H53         1.5240   -1.8030   -2.7500 hc        1 MOL      0.112282
    121 H54         2.3260   -2.9520   -4.1450 hn        1 MOL      0.370211
    122 H55         3.7920   -2.7410   -5.0840 hn        1 MOL      0.370211
    123 N12         5.3560   -2.3280   -0.8840 n         1 MOL     -0.449759
    124 C39         6.6230   -1.8360   -0.3370 c3        1 MOL      0.256134
    125 C40         6.7200   -0.2940   -0.3630 c         1 MOL      0.495270
    126 O19         7.2390    0.3470    0.5290 o         1 MOL     -0.520539
    127 C41         7.8240   -2.5010   -1.0620 c3        1 MOL     -0.355807
    128 C42         9.1590   -2.0410   -0.4270 ca        1 MOL     -0.007450
    129 C43         9.4240   -2.3870    0.8720 ca        1 MOL      0.033018
    130 C44        10.1090   -1.4140   -1.1900 ca        1 MOL      0.033018
    131 C45        10.6710   -2.1070    1.4640 ca        1 MOL     -0.500629
    132 C46        11.3670   -1.0150   -0.6290 ca        1 MOL     -0.500629
    133 C47        11.6570   -1.3170    0.7820 ca        1 MOL      0.531449
    134 O20        12.8250   -0.8680    1.3540 oh        1 MOL     -0.515941
    135 H56         5.3660   -3.0030   -1.6290 hn        1 MOL      0.295713
    136 H57         6.6410   -2.1780    0.6900 h1        1 MOL      0.057350
    137 H58         7.7030   -2.3000   -2.1210 hc        1 MOL      0.105681
    138 H59         7.6760   -3.5760   -0.9310 hc        1 MOL      0.105681
    139 H60         8.5990   -2.8160    1.4350 ha        1 MOL      0.091099
    140 H61         9.9100   -1.2850   -2.2430 ha        1 MOL      0.091099
    141 H62        10.7380   -2.2320    2.5370 ha        1 MOL      0.201534
    142 H63        11.9430   -0.3890   -1.2910 ha        1 MOL      0.201534
    143 H64        13.3600   -0.5080    0.6430 ho        1 MOL      0.357070
    144 N13         6.1830    0.3660   -1.3670 n         1 MOL     -0.356389
    145 C48         6.1090    1.8540   -1.3680 c3        1 MOL     -0.066608
    146 C49         5.2920    2.4630   -0.2170 c         1 MOL      0.303536
    147 O21         5.5290    3.6090    0.2820 o         1 MOL     -0.519283
    148 C50         5.5650    2.2840   -2.7720 c3        1 MOL     -0.034545
    149 C51         5.4890    3.8070   -2.9890 c3        1 MOL     -0.106208
    150 C52         4.7750    4.1630   -4.2820 c         1 MOL      0.728128
    151 O22         3.6000    4.5020   -4.0880 o         1 MOL     -0.753471
    152 O23         5.4010    4.1670   -5.3540 o         1 MOL     -0.753471
    153 H65         5.7790   -0.1460   -2.1380 hn        1 MOL      0.227636
    154 H66         7.0820    2.2640   -1.1040 h1        1 MOL      0.115462
    155 H67         4.5830    1.8670   -2.9840 hc        1 MOL      0.028235
    156 H68         6.2390    1.9680   -3.5770 hc        1 MOL      0.028235
    157 H69         6.5060    4.2000   -3.0280 hc        1 MOL     -0.006058
    158 H70         4.9680    4.2660   -2.1570 hc        1 MOL     -0.006058
    159 N14         4.2230    1.7820    0.2320 n         1 MOL      0.032607
    160 C53         3.3550    2.2630    1.3640 c3        1 MOL     -0.199171
    161 C54         4.1100    1.8550    2.7480 c         1 MOL      0.467278
    162 O24         4.1190    2.5690    3.7180 o         1 MOL     -0.542860
    163 C55         1.9650    1.6680    1.2650 c3        1 MOL      0.144520
    164 C56         1.2160    2.1410    0.0180 c3        1 MOL     -0.056345
    165 C57        -0.1110    1.4060   -0.2570 c         1 MOL      0.593858
    166 O25        -1.1200    2.0170   -0.6390 o         1 MOL     -0.728916
    167 O26        -0.1240    0.1530   -0.2470 o         1 MOL     -0.728916
    168 H71         4.0840    0.8490   -0.1390 hn        1 MOL      0.100251
    169 H72         3.2660    3.3510    1.3030 h1        1 MOL      0.121410
    170 H73         1.3710    2.0330    2.1040 hc        1 MOL      0.004906
    171 H74         2.0710    0.5880    1.3680 hc        1 MOL      0.004906
    172 H75         1.9200    2.0170   -0.8080 hc        1 MOL      0.053162
    173 H76         1.0910    3.2210    0.1210 hc        1 MOL      0.053162
    174 N15         4.7270    0.6380    2.7680 n         1 MOL      0.077433
    175 C58         5.5850    0.1410    3.8190 c3        1 MOL     -0.361848
    176 H77         6.5100    0.7180    3.8360 h1        1 MOL      0.105753
    177 H78         5.0780    0.2380    4.7790 h1        1 MOL      0.105753
    178 H79         5.8160   -0.9090    3.6350 h1        1 MOL      0.105753
    179 H80         4.7550    0.0770    1.9230 hn        1 MOL     -0.071834
    180 Ca1        -2.3590   -0.4520   -1.1360 Ca        1 MOL      1.793958
    181 O27        -1.2780   -0.1530   -3.6020 oh        1 MOL     -0.810129
    182 H81        -0.4270   -0.0240   -4.0300 ho        1 MOL      0.382152
    183 H82        -1.8060    0.5910   -3.8940 ho        1 MOL      0.382152
@<TRIPOS>BOND
     1    1    2 1   
     2    1    4 1   
     3    1    5 1   
     4    1    6 1   
     5    2    3 2   
     6    2    7 1   
     7    7    8 1   
     8    7   15 1   
     9    8    9 1   
    10    8   11 1   
    11    8   16 1   
    12    9   10 2   
    13    9   19 1   
    14   11   12 1   
    15   11   17 1   
    16   11   18 1   
    17   12   13 1   
    18   12   14 1   
    19   19   20 1   
    20   19   27 1   
    21   20   21 1   
    22   20   23 1   
    23   20   28 1   
    24   21   22 2   
    25   21   38 1   
    26   23   24 1   
    27   23   25 1   
    28   23   29 1   
    29   24   26 1   
    30   24   30 1   
    31   24   31 1   
    32   25   32 1   
    33   25   33 1   
    34   25   34 1   
    35   26   35 1   
    36   26   36 1   
    37   26   37 1   
    38   38   39 1   
    39   38   46 1   
    40   39   40 1   
    41   39   42 1   
    42   39   47 1   
    43   40   41 2   
    44   40   50 1   
    45   42   43 1   
    46   42   48 1   
    47   42   49 1   
    48   43   44 1   
    49   43   45 1   
    50   50   51 1   
    51   50   54 1   
    52   51   52 1   
    53   51   55 1   
    54   51   56 1   
    55   52   53 2   
    56   52   57 1   
    57   57   58 1   
    58   57   65 1   
    59   58   59 1   
    60   58   61 1   
    61   58   66 1   
    62   59   60 2   
    63   59   69 1   
    64   61   62 1   
    65   61   67 1   
    66   61   68 1   
    67   62   63 1   
    68   62   64 1   
    69   69   70 1   
    70   69   73 1   
    71   70   71 1   
    72   70   74 1   
    73   70   75 1   
    74   71   72 2   
    75   71   76 1   
    76   76   77 1   
    77   76   85 1   
    78   77   78 1   
    79   77   80 1   
    80   77   86 1   
    81   78   79 2   
    82   78   93 1   
    83   80   81 1   
    84   80   87 1   
    85   80   88 1   
    86   81   82 1   
    87   81   89 1   
    88   81   90 1   
    89   82   83 1   
    90   82   84 2   
    91   83   91 1   
    92   83   92 1   
    93   93   94 1   
    94   93  100 1   
    95   94   95 1   
    96   94   97 1   
    97   94  101 1   
    98   95   96 2   
    99   95  109 1   
   100   97   98 1   
   101   97   99 1   
   102   97  102 1   
   103   98  103 1   
   104   98  104 1   
   105   98  105 1   
   106   99  106 1   
   107   99  107 1   
   108   99  108 1   
   109  109  110 1   
   110  109  117 1   
   111  110  111 1   
   112  110  113 1   
   113  110  118 1   
   114  111  112 2   
   115  111  123 1   
   116  113  114 1   
   117  113  119 1   
   118  113  120 1   
   119  114  115 1   
   120  114  116 2   
   121  115  121 1   
   122  115  122 1   
   123  123  124 1   
   124  123  135 1   
   125  124  125 1   
   126  124  127 1   
   127  124  136 1   
   128  125  126 2   
   129  125  144 1   
   130  127  128 1   
   131  127  137 1   
   132  127  138 1   
   133  128  129 ar  
   134  128  130 ar  
   135  129  131 ar  
   136  129  139 1   
   137  130  132 ar  
   138  130  140 1   
   139  131  133 ar  
   140  131  141 1   
   141  132  133 ar  
   142  132  142 1   
   143  133  134 1   
   144  134  143 1   
   145  144  145 1   
   146  144  153 1   
   147  145  146 1   
   148  145  148 1   
   149  145  154 1   
   150  146  147 2   
   151  146  159 1   
   152  148  149 1   
   153  148  155 1   
   154  148  156 1   
   155  149  150 1   
   156  149  157 1   
   157  149  158 1   
   158  150  151 1   
   159  150  152 1   
   160  159  160 1   
   161  159  168 1   
   162  160  161 1   
   163  160  163 1   
   164  160  169 1   
   165  161  162 2   
   166  161  174 1   
   167  163  164 1   
   168  163  170 1   
   169  163  171 1   
   170  164  165 1   
   171  164  172 1   
   172  164  173 1   
   173  165  166 1   
   174  165  167 1   
   175  174  175 1   
   176  174  179 1   
   177  175  176 1   
   178  175  177 1   
   179  175  178 1   
   180  181  182 1   
   181  181  183 1   
@<TRIPOS>SUBSTRUCTURE
     1 MOL         1 TEMP              0 ****  ****    0 ROOT
