@<TRIPOS>MOLECULE
MOL
  189   185     1     0     0
SMALL
resp


@<TRIPOS>ATOM
      1 C1          1.0100    3.4890   -5.3180 c3        1 MOL     -0.344509
      2 C2          1.1440    2.7720   -3.9770 c         1 MOL      0.842410
      3 O1          0.1710    2.7780   -3.1510 o         1 MOL     -0.640022
      4 H1          0.4680    4.4250   -5.1770 hc        1 MOL      0.079537
      5 H2          2.0010    3.7010   -5.7180 hc        1 MOL      0.079537
      6 H3          0.4630    2.8550   -6.0170 hc        1 MOL      0.079537
      7 N1          2.2220    2.0780   -3.6590 n         1 MOL     -0.749347
      8 C3          2.5190    1.7210   -2.2960 c3        1 MOL      0.206244
      9 C4          2.7970    3.0170   -1.4860 c         1 MOL      0.479686
     10 O2          3.7450    3.7800   -1.8670 o         1 MOL     -0.574468
     11 C5          3.6690    0.7210   -2.2860 c3        1 MOL     -0.068455
     12 C6          4.2000    0.3500   -0.8930 c         1 MOL      0.645145
     13 O3          3.4120    0.4940    0.0510 o         1 MOL     -0.606144
     14 O4          5.3620   -0.1370   -0.8530 o         1 MOL     -0.606144
     15 H4          2.9420    1.9870   -4.3710 hn        1 MOL      0.365677
     16 H5          1.6200    1.3120   -1.8340 h1        1 MOL      0.034204
     17 H6          4.5110    1.0490   -2.8980 hc        1 MOL      0.014510
     18 H7          3.4640   -0.2300   -2.7660 hc        1 MOL      0.014510
     19 N2          2.0690    3.3720   -0.3740 n         1 MOL     -0.407943
     20 C7          2.0500    4.7240    0.2160 c3        1 MOL      0.036731
     21 C8          2.5760    4.7410    1.6620 c         1 MOL      0.541631
     22 O5          2.4450    5.8170    2.3400 o         1 MOL     -0.572008
     23 C9          0.7320    5.4730   -0.0730 c3        1 MOL     -0.072848
     24 C10         0.6640    5.9980   -1.5530 c3        1 MOL      0.337355
     25 C11        -0.6320    6.5230   -2.1330 c3        1 MOL     -0.229268
     26 C12        -0.4610    6.7450   -3.6070 c3        1 MOL      0.093063
     27 N3          0.5710    7.7080   -4.0200 n4        1 MOL     -0.447601
     28 H8          1.3330    2.7400   -0.0820 hn        1 MOL      0.283772
     29 H9          2.7750    5.3170   -0.3450 h1        1 MOL      0.054928
     30 H10         0.7390    6.4580    0.3960 hc        1 MOL      0.007907
     31 H11        -0.1780    4.9050    0.1450 hc        1 MOL      0.007907
     32 H12         1.0370    5.2220   -2.2240 hc        1 MOL     -0.082042
     33 H13         1.4040    6.7970   -1.5670 hc        1 MOL     -0.082042
     34 H14        -1.0220    7.4530   -1.7000 hc        1 MOL      0.081564
     35 H15        -1.4020    5.7680   -1.9640 hc        1 MOL      0.081564
     36 H16        -1.4110    7.0620   -4.0530 hx        1 MOL      0.075175
     37 H17        -0.4120    5.7780   -4.1070 hx        1 MOL      0.075175
     38 H18         1.4620    7.2780   -3.8100 hn        1 MOL      0.344233
     39 H19         0.4690    7.8320   -5.0110 hn        1 MOL      0.344233
     40 H20         0.5580    8.6010   -3.5550 hn        1 MOL      0.344233
     41 N4          3.2640    3.6500    1.9790 n         1 MOL     -0.375904
     42 C13         4.1970    3.4970    3.1000 c3        1 MOL     -0.032482
     43 C14         5.5640    2.8400    2.8770 c         1 MOL      0.459870
     44 O6          6.4630    3.0610    3.6800 o         1 MOL     -0.516166
     45 C15         3.5010    2.7530    4.2950 c3        1 MOL     -0.148680
     46 C16         2.4080    1.7390    3.9280 c         1 MOL      0.808846
     47 O7          2.5490    1.1050    2.8940 o         1 MOL     -0.748080
     48 O8          1.3410    1.5980    4.5960 o         1 MOL     -0.748080
     49 H21         3.0420    2.8200    1.4500 hn        1 MOL      0.276901
     50 H22         4.3890    4.4480    3.6100 h1        1 MOL      0.106524
     51 H23         2.9770    3.4170    4.9790 hc        1 MOL      0.045011
     52 H24         4.1760    2.2130    4.9610 hc        1 MOL      0.045011
     53 N5          5.7150    2.1430    1.7310 n         1 MOL     -0.266274
     54 C17         7.0170    1.7970    1.1730 c3        1 MOL     -0.152887
     55 C18         7.5480    0.4100    1.6060 c         1 MOL      0.550132
     56 O9          8.7210    0.1450    1.7580 o         1 MOL     -0.598430
     57 H25         4.8670    1.9910    1.1970 hn        1 MOL      0.218320
     58 H26         7.7690    2.5290    1.4470 h1        1 MOL      0.097114
     59 H27         7.0010    1.7430    0.0860 h1        1 MOL      0.097114
     60 N6          6.6440   -0.5260    1.7400 n         1 MOL     -0.184651
     61 C19         6.8770   -1.9500    2.0710 c3        1 MOL      0.064820
     62 C20         7.1550   -2.8190    0.8080 c         1 MOL      0.345771
     63 O10         7.7800   -3.8410    0.9550 o         1 MOL     -0.546162
     64 C21         5.7430   -2.5090    2.9260 c3        1 MOL     -0.337725
     65 C22         4.3380   -2.1520    2.4080 c         1 MOL      0.716862
     66 O11         4.0350   -2.2390    1.1660 o         1 MOL     -0.669216
     67 O12         3.5180   -1.8210    3.2750 o         1 MOL     -0.669216
     68 H28         5.7800   -0.2480    1.3030 hn        1 MOL      0.048825
     69 H29         7.7830   -1.9910    2.6720 h1        1 MOL      0.103053
     70 H30         5.9600   -2.1510    3.9310 hc        1 MOL      0.108404
     71 H31         5.8960   -3.5810    2.8740 hc        1 MOL      0.108404
     72 N7          6.6500   -2.4450   -0.3530 n         1 MOL     -0.026575
     73 C23         6.7530   -3.1030   -1.6950 c3        1 MOL     -0.087801
     74 C24         5.4150   -3.7970   -1.9920 c         1 MOL      0.596321
     75 O13         5.3860   -4.7170   -2.8550 o         1 MOL     -0.610300
     76 H32         6.2310   -1.5200   -0.3410 hn        1 MOL      0.116151
     77 H33         7.5420   -3.8610   -1.6800 h1        1 MOL      0.065161
     78 H34         6.9480   -2.3270   -2.4210 h1        1 MOL      0.065161
     79 N8          4.2620   -3.4250   -1.4130 n         1 MOL     -0.260392
     80 C25         2.9400   -4.0660   -1.6450 c3        1 MOL     -0.255840
     81 C26         1.6920   -3.0810   -1.6150 c         1 MOL      0.885182
     82 O14         1.7000   -2.0100   -1.0190 o         1 MOL     -0.767997
     83 C27         2.7650   -5.1900   -0.5510 c3        1 MOL      0.598097
     84 C28         3.5210   -6.4310   -0.9690 c3        1 MOL     -0.526810
     85 O15         3.2790   -4.8190    0.7090 oh        1 MOL     -0.712062
     86 H35         4.2970   -2.7200   -0.6860 hn        1 MOL      0.109487
     87 H36         2.8040   -4.4620   -2.6570 h1        1 MOL      0.103552
     88 H37         1.6890   -5.3580   -0.4850 h1        1 MOL     -0.104157
     89 H38         3.4800   -3.8810    0.7590 ho        1 MOL      0.465101
     90 H39         3.4100   -7.2110   -0.2240 hc        1 MOL      0.132100
     91 H40         2.9780   -6.7200   -1.8750 hc        1 MOL      0.132100
     92 H41         4.6030   -6.3320   -1.0530 hc        1 MOL      0.132100
     93 N9          0.6460   -3.4100   -2.3750 n         1 MOL     -0.651336
     94 C29        -0.6090   -2.6110   -2.4940 c3        1 MOL     -0.004881
     95 C30        -1.7400   -3.2290   -1.6310 c         1 MOL      0.487703
     96 O16        -2.1090   -4.4010   -1.7670 o         1 MOL     -0.578887
     97 C31        -1.0790   -2.6100   -3.9710 c3        1 MOL      0.192310
     98 C32        -0.1900   -1.6780   -4.8150 c3        1 MOL      0.039534
     99 C33        -2.5620   -2.1720   -4.0560 c3        1 MOL     -0.245679
    100 C34        -0.6590   -1.5870   -6.2510 c3        1 MOL     -0.385139
    101 H42         0.7440   -4.2570   -2.9180 hn        1 MOL      0.319438
    102 H43        -0.4720   -1.5990   -2.0900 h1        1 MOL      0.125415
    103 H44        -0.9580   -3.6090   -4.3830 hc        1 MOL      0.002045
    104 H45         0.8240   -2.0700   -4.7220 hc        1 MOL      0.027228
    105 H46        -0.2340   -0.6780   -4.3880 hc        1 MOL      0.027228
    106 H47        -3.2980   -2.8580   -3.6440 hc        1 MOL      0.046132
    107 H48        -2.6410   -1.2300   -3.5330 hc        1 MOL      0.046132
    108 H49        -2.8800   -1.9640   -5.0800 hc        1 MOL      0.046132
    109 H50         0.2410   -1.3740   -6.8350 hc        1 MOL      0.100508
    110 H51        -1.2140   -2.4700   -6.5750 hc        1 MOL      0.100508
    111 H52        -1.3110   -0.7280   -6.3290 hc        1 MOL      0.100508
    112 N10        -2.3510   -2.5690   -0.6570 n         1 MOL     -0.040110
    113 C35        -3.5390   -2.9760    0.1700 c3        1 MOL     -0.161211
    114 C36        -4.8450   -2.5280   -0.5020 c         1 MOL      0.479917
    115 O17        -4.8480   -1.6630   -1.3230 o         1 MOL     -0.377143
    116 C37        -3.5610   -2.3890    1.6320 c3        1 MOL      0.270423
    117 C38        -2.3600   -2.7330    2.5890 c3        1 MOL     -0.287547
    118 O18        -3.5160   -0.9470    1.5450 oh        1 MOL     -0.551178
    119 H53        -1.9900   -1.6350   -0.5120 hn        1 MOL      0.009069
    120 H54        -3.6220   -4.0560    0.0810 h1        1 MOL      0.083653
    121 H55        -4.3990   -2.7100    2.2490 h1        1 MOL      0.029321
    122 H56        -2.6900   -0.6810    1.1390 ho        1 MOL      0.361383
    123 H57        -2.6270   -2.1360    3.4640 hc        1 MOL      0.066036
    124 H58        -2.4600   -3.8050    2.7780 hc        1 MOL      0.066036
    125 H59        -1.4040   -2.2980    2.2980 hc        1 MOL      0.066036
    126 N11        -5.9300   -3.0530   -0.0150 n         1 MOL     -0.358487
    127 C39        -7.3360   -2.5590   -0.2050 c3        1 MOL     -0.165057
    128 C40        -7.4310   -0.9590   -0.2020 c         1 MOL      0.297909
    129 O19        -7.8280   -0.3490   -1.1930 o         1 MOL     -0.417965
    130 C41        -8.2480   -3.1300    0.7460 c3        1 MOL      0.373572
    131 C42        -8.5050   -4.6150    0.5770 c3        1 MOL     -0.558299
    132 O20        -7.9140   -2.8540    2.1160 oh        1 MOL     -0.623742
    133 H60        -5.8040   -3.8000    0.6500 hn        1 MOL      0.281014
    134 H61        -7.6330   -2.8540   -1.2200 h1        1 MOL      0.152329
    135 H62        -9.2480   -2.7220    0.6180 h1        1 MOL      0.040475
    136 H63        -8.7030   -2.5370    2.5640 ho        1 MOL      0.379705
    137 H64        -8.7340   -4.7480   -0.4800 hc        1 MOL      0.162644
    138 H65        -7.6380   -5.1960    0.8740 hc        1 MOL      0.162644
    139 H66        -9.4350   -4.8010    1.1230 hc        1 MOL      0.162644
    140 N12        -7.0610   -0.2810    0.9300 n         1 MOL     -0.315399
    141 C43        -7.2750    1.1690    0.9570 c3        1 MOL     -0.076390
    142 C44        -6.3600    1.9360   -0.1330 c         1 MOL      0.353382
    143 O21        -6.7470    2.9700   -0.6250 o         1 MOL     -0.472326
    144 C45        -7.0680    1.7480    2.3470 c3        1 MOL      0.011541
    145 C46        -7.9450    1.2170    3.5460 c3        1 MOL     -0.079042
    146 C47        -7.1560    1.5490    4.8810 c3        1 MOL     -0.163908
    147 C48        -7.9110    0.8360    6.0190 c3        1 MOL     -0.046206
    148 N13        -7.3180    1.2990    7.2360 n4        1 MOL     -0.034026
    149 H67        -6.7850   -0.7740    1.7630 hn        1 MOL      0.349758
    150 H68        -8.3420    1.3200    0.7530 h1        1 MOL      0.113841
    151 H69        -7.1350    2.8410    2.3000 hc        1 MOL      0.026970
    152 H70        -6.0480    1.4940    2.6230 hc        1 MOL      0.026970
    153 H71        -7.8970    0.1390    3.4090 hc        1 MOL      0.047526
    154 H72        -8.9150    1.7170    3.4910 hc        1 MOL      0.047526
    155 H73        -7.2520    2.6280    5.0350 hc        1 MOL      0.094486
    156 H74        -6.1350    1.1850    4.8500 hc        1 MOL      0.094486
    157 H75        -7.9340   -0.2500    5.9700 hx        1 MOL      0.095588
    158 H76        -8.8910    1.3040    5.9610 hx        1 MOL      0.095588
    159 H77        -6.3090    1.3060    7.1500 hn        1 MOL      0.229026
    160 H78        -7.4210    2.2510    7.5470 hn        1 MOL      0.229026
    161 H79        -7.5840    0.7390    8.0310 hn        1 MOL      0.229026
    162 N14        -5.1630    1.3920   -0.4100 n         1 MOL     -0.061064
    163 C49        -4.1770    1.9030   -1.3300 c3        1 MOL     -0.066147
    164 C50        -4.5910    1.6480   -2.8240 c         1 MOL      0.416943
    165 O22        -4.6890    2.5600   -3.6200 o         1 MOL     -0.539589
    166 C51        -2.8540    1.1870   -1.1150 c3        1 MOL     -0.005811
    167 C52        -1.9220    1.8040   -0.0450 c3        1 MOL     -0.052242
    168 C53        -0.6770    0.9150    0.1770 c         1 MOL      0.582708
    169 O23        -0.8300   -0.3280    0.3880 o         1 MOL     -0.623811
    170 O24         0.4180    1.4060    0.5580 o         1 MOL     -0.623811
    171 H80        -4.9150    0.5870    0.1450 hn        1 MOL      0.092404
    172 H81        -4.0100    2.9800   -1.2850 h1        1 MOL      0.071262
    173 H82        -2.3150    1.1880   -2.0580 hc        1 MOL      0.021916
    174 H83        -2.9980    0.1260   -0.9280 hc        1 MOL      0.021916
    175 H84        -2.4250    1.9960    0.8950 hc        1 MOL      0.027965
    176 H85        -1.6020    2.8060   -0.3430 hc        1 MOL      0.027965
    177 N15        -5.2390    0.4770   -3.0360 n         1 MOL     -0.026763
    178 C54        -5.9420    0.1280   -4.2560 c3        1 MOL     -0.227358
    179 H86        -6.1910    1.0370   -4.8050 h1        1 MOL      0.081362
    180 H87        -5.3060   -0.5070   -4.8740 h1        1 MOL      0.081362
    181 H88        -6.8590   -0.4080   -4.0070 h1        1 MOL      0.081362
    182 H89        -5.4550   -0.1390   -2.2750 hn        1 MOL      0.140549
    183 Ca1         1.7310   -0.7940    1.2700 Ca        1 MOL      1.727669
    184 O25         1.0390   -3.3490    1.9860 oh        1 MOL     -0.800484
    185 H90         1.2490   -3.6450    2.8720 ho        1 MOL      0.393132
    186 H91         0.6930   -4.1340    1.5470 ho        1 MOL      0.393132
    187 O26         0.2680   -0.8220    3.5610 oh        1 MOL     -0.800484
    188 H92         0.4030    0.0540    3.9340 ho        1 MOL      0.393132
    189 H93        -0.1730   -1.3150    4.2570 ho        1 MOL      0.393132
@<TRIPOS>BOND
     1    1    2 1   
     2    1    4 1   
     3    1    5 1   
     4    1    6 1   
     5    2    3 2   
     6    2    7 1   
     7    7    8 1   
     8    7   15 1   
     9    8    9 1   
    10    8   11 1   
    11    8   16 1   
    12    9   10 2   
    13    9   19 1   
    14   11   12 1   
    15   11   17 1   
    16   11   18 1   
    17   12   13 1   
    18   12   14 1   
    19   19   20 1   
    20   19   28 1   
    21   20   21 1   
    22   20   23 1   
    23   20   29 1   
    24   21   22 2   
    25   21   41 1   
    26   23   24 1   
    27   23   30 1   
    28   23   31 1   
    29   24   25 1   
    30   24   32 1   
    31   24   33 1   
    32   25   26 1   
    33   25   34 1   
    34   25   35 1   
    35   26   27 1   
    36   26   36 1   
    37   26   37 1   
    38   27   38 1   
    39   27   39 1   
    40   27   40 1   
    41   41   42 1   
    42   41   49 1   
    43   42   43 1   
    44   42   45 1   
    45   42   50 1   
    46   43   44 2   
    47   43   53 1   
    48   45   46 1   
    49   45   51 1   
    50   45   52 1   
    51   46   47 1   
    52   46   48 1   
    53   53   54 1   
    54   53   57 1   
    55   54   55 1   
    56   54   58 1   
    57   54   59 1   
    58   55   56 2   
    59   55   60 1   
    60   60   61 1   
    61   60   68 1   
    62   61   62 1   
    63   61   64 1   
    64   61   69 1   
    65   62   63 2   
    66   62   72 1   
    67   64   65 1   
    68   64   70 1   
    69   64   71 1   
    70   65   66 1   
    71   65   67 1   
    72   72   73 1   
    73   72   76 1   
    74   73   74 1   
    75   73   77 1   
    76   73   78 1   
    77   74   75 2   
    78   74   79 1   
    79   79   80 1   
    80   79   86 1   
    81   80   81 1   
    82   80   83 1   
    83   80   87 1   
    84   81   82 2   
    85   81   93 1   
    86   83   84 1   
    87   83   85 1   
    88   83   88 1   
    89   84   90 1   
    90   84   91 1   
    91   84   92 1   
    92   85   89 1   
    93   93   94 1   
    94   93  101 1   
    95   94   95 1   
    96   94   97 1   
    97   94  102 1   
    98   95   96 2   
    99   95  112 1   
   100   97   98 1   
   101   97   99 1   
   102   97  103 1   
   103   98  100 1   
   104   98  104 1   
   105   98  105 1   
   106   99  106 1   
   107   99  107 1   
   108   99  108 1   
   109  100  109 1   
   110  100  110 1   
   111  100  111 1   
   112  112  113 1   
   113  112  119 1   
   114  113  114 1   
   115  113  116 1   
   116  113  120 1   
   117  114  115 2   
   118  114  126 1   
   119  116  117 1   
   120  116  118 1   
   121  116  121 1   
   122  117  123 1   
   123  117  124 1   
   124  117  125 1   
   125  118  122 1   
   126  126  127 1   
   127  126  133 1   
   128  127  128 1   
   129  127  130 1   
   130  127  134 1   
   131  128  129 2   
   132  128  140 1   
   133  130  131 1   
   134  130  132 1   
   135  130  135 1   
   136  131  137 1   
   137  131  138 1   
   138  131  139 1   
   139  132  136 1   
   140  140  141 1   
   141  140  149 1   
   142  141  142 1   
   143  141  144 1   
   144  141  150 1   
   145  142  143 2   
   146  142  162 1   
   147  144  145 1   
   148  144  151 1   
   149  144  152 1   
   150  145  146 1   
   151  145  153 1   
   152  145  154 1   
   153  146  147 1   
   154  146  155 1   
   155  146  156 1   
   156  147  148 1   
   157  147  157 1   
   158  147  158 1   
   159  148  159 1   
   160  148  160 1   
   161  148  161 1   
   162  162  163 1   
   163  162  171 1   
   164  163  164 1   
   165  163  166 1   
   166  163  172 1   
   167  164  165 2   
   168  164  177 1   
   169  166  167 1   
   170  166  173 1   
   171  166  174 1   
   172  167  168 1   
   173  167  175 1   
   174  167  176 1   
   175  168  169 1   
   176  168  170 1   
   177  177  178 1   
   178  177  182 1   
   179  178  179 1   
   180  178  180 1   
   181  178  181 1   
   182  184  185 1   
   183  184  186 1   
   184  187  188 1   
   185  187  189 1   
@<TRIPOS>SUBSTRUCTURE
     1 MOL         1 TEMP              0 ****  ****    0 ROOT
