@<TRIPOS>MOLECULE
MOL
  179   176     1     0     0
SMALL
resp


@<TRIPOS>ATOM
      1 C1          2.6160    3.0610    4.4170 c3        1 MOL     -0.360079
      2 C2          1.8090    2.8700    3.1290 c         1 MOL      0.635494
      3 O1          2.3680    2.6720    2.0460 o         1 MOL     -0.520795
      4 H1          3.6540    3.2810    4.1660 hc        1 MOL      0.095726
      5 H2          2.1980    3.8890    4.9890 hc        1 MOL      0.095726
      6 H3          2.5730    2.1490    5.0120 hc        1 MOL      0.095726
      7 N1          0.4200    2.8980    3.2770 n         1 MOL     -0.702564
      8 C3         -0.5430    2.7230    2.1410 c3        1 MOL      0.134600
      9 C4         -0.9190    4.0530    1.3940 c         1 MOL      0.606162
     10 O2         -2.0940    4.4570    1.4160 o         1 MOL     -0.448207
     11 C5         -1.7680    1.9760    2.6270 c3        1 MOL     -0.097341
     12 C6         -2.6940    1.4520    1.5110 c         1 MOL      0.470957
     13 O3         -3.8850    1.4200    1.8210 o         1 MOL     -0.585142
     14 O4         -2.3430    1.3150    0.3150 o         1 MOL     -0.585142
     15 H4          0.0570    3.0790    4.2020 hn        1 MOL      0.359785
     16 H5         -0.0340    2.1360    1.3750 h1        1 MOL      0.125711
     17 H6         -2.3200    2.6500    3.2880 hc        1 MOL      0.032833
     18 H7         -1.4380    1.0980    3.1900 hc        1 MOL      0.032833
     19 N2          0.0960    4.7910    0.8190 n         1 MOL     -0.649847
     20 C7         -0.1530    6.1390    0.2440 c3        1 MOL      0.040882
     21 C8         -1.1200    6.2010   -0.9040 c         1 MOL      0.409466
     22 O5         -1.8230    7.2030   -1.0410 o         1 MOL     -0.537502
     23 C9          1.1930    6.7610   -0.1660 c3        1 MOL     -0.062419
     24 C10         2.1480    6.8400    1.0480 c3        1 MOL      0.018803
     25 C11         3.2780    7.8260    0.8410 c3        1 MOL      0.158614
     26 C12         4.2680    7.9180    1.9820 c3        1 MOL     -0.242153
     27 N3          5.0130    6.7040    2.3060 n4        1 MOL     -0.131024
     28 H8          1.0130    4.3890    0.6710 hn        1 MOL      0.396170
     29 H9         -0.6300    6.7890    0.9740 h1        1 MOL      0.095327
     30 H10         0.9840    7.7500   -0.5770 hc        1 MOL      0.036345
     31 H11         1.5540    6.1870   -1.0080 hc        1 MOL      0.036345
     32 H12         2.4810    5.8220    1.2800 hc        1 MOL     -0.007368
     33 H13         1.6750    7.2850    1.9270 hc        1 MOL     -0.007368
     34 H14         2.8780    8.8150    0.6400 hc        1 MOL      0.014023
     35 H15         3.7550    7.5250   -0.0940 hc        1 MOL      0.014023
     36 H16         3.7950    8.1850    2.9290 hx        1 MOL      0.140624
     37 H17         4.9730    8.6710    1.6350 hx        1 MOL      0.140624
     38 H18         5.7470    6.9720    2.9470 hn        1 MOL      0.277520
     39 H19         4.5260    5.9460    2.7580 hn        1 MOL      0.277520
     40 H20         5.5370    6.3500    1.5150 hn        1 MOL      0.277520
     41 N4         -1.3130    5.1240   -1.6800 n         1 MOL     -0.170680
     42 C13        -2.2530    4.9690   -2.7980 c3        1 MOL     -0.138743
     43 C14        -3.6780    4.6550   -2.2820 c         1 MOL      0.382138
     44 O6         -4.6330    4.7410   -3.1330 o         1 MOL     -0.513890
     45 C15        -1.7750    3.8590   -3.7850 c3        1 MOL     -0.099943
     46 C16        -1.5230    2.5810   -3.0050 c         1 MOL      0.650686
     47 O7         -0.4280    2.1810   -2.5580 o         1 MOL     -0.743886
     48 O8         -2.4630    1.7880   -2.7500 o         1 MOL     -0.743886
     49 H21        -0.7910    4.2880   -1.4340 hn        1 MOL      0.184775
     50 H22        -2.2880    5.9520   -3.2620 h1        1 MOL      0.136188
     51 H23        -0.8380    4.2570   -4.1870 hc        1 MOL      0.051823
     52 H24        -2.4160    3.6770   -4.6510 hc        1 MOL      0.051823
     53 N5         -3.8340    4.4370   -0.9700 n         1 MOL     -0.013293
     54 C17        -5.0560    4.1150   -0.2280 c3        1 MOL     -0.196019
     55 C18        -5.8980    3.0610   -0.8840 c         1 MOL      0.707442
     56 O9         -6.8680    3.4210   -1.5950 o         1 MOL     -0.558265
     57 H25        -3.0100    4.4160   -0.3800 hn        1 MOL      0.135029
     58 H26        -5.6940    4.9920   -0.1960 h1        1 MOL      0.065873
     59 H27        -4.7920    3.8510    0.7990 h1        1 MOL      0.065873
     60 N6         -5.5550    1.8200   -0.4790 n         1 MOL     -0.560370
     61 C19        -6.3360    0.6810   -0.9510 c3        1 MOL      0.000360
     62 C20        -6.6270   -0.4330    0.0960 c         1 MOL      0.310266
     63 O10        -7.2350   -1.4560   -0.2250 o         1 MOL     -0.464377
     64 C21        -5.7660    0.1500   -2.2950 c3        1 MOL     -0.208772
     65 C22        -4.5550   -0.7230   -2.2230 c         1 MOL      0.511156
     66 N7         -4.3840   -1.6020   -3.2490 n         1 MOL     -0.676318
     67 O11        -3.7110   -0.6610   -1.3160 o         1 MOL     -0.418067
     68 H28        -4.7650    1.6460    0.1170 hn        1 MOL      0.342215
     69 H29        -7.3290    1.0870   -1.1760 h1        1 MOL      0.107130
     70 H30        -5.5440    0.9710   -2.9680 hc        1 MOL      0.110907
     71 H31        -6.5540   -0.4340   -2.7790 hc        1 MOL      0.110907
     72 H32        -5.0150   -1.5660   -4.0370 hn        1 MOL      0.327333
     73 H33        -3.5990   -2.2400   -3.2670 hn        1 MOL      0.327333
     74 N8         -6.0220   -0.2690    1.2700 n         1 MOL     -0.042112
     75 C23        -6.1320   -1.1650    2.4190 c3        1 MOL     -0.458354
     76 C24        -4.9820   -2.1610    2.5280 c         1 MOL      0.779248
     77 O12        -5.0310   -2.8940    3.5200 o         1 MOL     -0.626033
     78 H34        -5.3150    0.4580    1.2690 hn        1 MOL      0.117203
     79 H35        -7.0740   -1.7090    2.3830 h1        1 MOL      0.181759
     80 H36        -6.0470   -0.4540    3.2440 h1        1 MOL      0.181759
     81 N9         -3.9350   -2.2120    1.7050 n         1 MOL     -0.508898
     82 C25        -2.8660   -3.2020    1.6050 c3        1 MOL      0.248762
     83 C26        -1.5530   -2.5090    1.5200 c         1 MOL      0.459354
     84 O13        -1.4240   -1.4910    0.8690 o         1 MOL     -0.504723
     85 C27        -3.0660   -4.2320    0.4220 c3        1 MOL     -0.103762
     86 C28        -4.3750   -4.9840    0.4500 ca        1 MOL      0.250769
     87 C29        -5.4940   -4.4540   -0.1940 ca        1 MOL     -0.367447
     88 C30        -4.4460   -6.2250    1.0690 ca        1 MOL     -0.367447
     89 C31        -6.7300   -5.1670   -0.3260 ca        1 MOL     -0.072161
     90 C32        -5.6720   -6.9390    0.9370 ca        1 MOL     -0.072161
     91 C33        -6.7680   -6.4710    0.2380 ca        1 MOL      0.171015
     92 O14        -7.8850   -7.1580    0.2680 oh        1 MOL     -0.427131
     93 H37        -3.9240   -1.5450    0.9360 hn        1 MOL      0.281806
     94 H38        -2.6970   -3.7060    2.5620 h1        1 MOL      0.002270
     95 H39        -2.2050   -4.9020    0.4160 hc        1 MOL      0.024471
     96 H40        -2.9130   -3.7420   -0.5350 hc        1 MOL      0.024471
     97 H41        -5.4520   -3.5110   -0.7010 ha        1 MOL      0.159906
     98 H42        -3.6350   -6.5960    1.6710 ha        1 MOL      0.159906
     99 H43        -7.5940   -4.7120   -0.7980 ha        1 MOL      0.104486
    100 H44        -5.7670   -7.9160    1.3980 ha        1 MOL      0.104486
    101 H45        -7.8430   -7.8390    0.9480 ho        1 MOL      0.339323
    102 N10        -0.5420   -3.0870    2.1610 n         1 MOL     -0.462488
    103 C34         0.8940   -2.8260    1.9100 c3        1 MOL      0.026225
    104 C35         1.4640   -3.8520    0.9620 c         1 MOL      0.502303
    105 O15         1.0510   -4.9770    0.9730 o         1 MOL     -0.545431
    106 C36         1.6710   -2.7520    3.2570 c3        1 MOL      0.138469
    107 C37         1.1390   -1.5010    4.1020 c3        1 MOL     -0.166849
    108 C38         3.2070   -2.7360    3.1260 c3        1 MOL     -0.135508
    109 C39         1.5560   -1.6880    5.6140 c3        1 MOL     -0.280598
    110 H46        -0.7700   -3.8160    2.8140 hn        1 MOL      0.286323
    111 H47         1.0210   -1.8260    1.4960 h1        1 MOL      0.020843
    112 H48         1.4980   -3.6980    3.7540 hc        1 MOL      0.015790
    113 H49         0.0530   -1.4560    4.0830 hc        1 MOL      0.129927
    114 H50         1.5830   -0.6190    3.6610 hc        1 MOL      0.129927
    115 H51         3.5950   -1.8470    2.6190 hc        1 MOL      0.034939
    116 H52         3.6290   -2.6960    4.1280 hc        1 MOL      0.034939
    117 H53         3.5870   -3.6340    2.6360 hc        1 MOL      0.034939
    118 H54         0.9470   -1.0070    6.2080 hc        1 MOL      0.075653
    119 H55         1.4260   -2.7300    5.9330 hc        1 MOL      0.075653
    120 H56         2.6070   -1.5050    5.8370 hc        1 MOL      0.075653
    121 N11         2.4120   -3.4240    0.1430 n         1 MOL     -0.141103
    122 C40         3.1900   -4.2770   -0.7810 c3        1 MOL     -0.004756
    123 C41         4.6810   -4.0580   -0.5260 c         1 MOL      0.562280
    124 O16         5.0010   -3.0970    0.1690 o         1 MOL     -0.457070
    125 C42         2.8260   -4.0010   -2.2680 c3        1 MOL      0.300263
    126 O17         1.5630   -3.4830   -2.4130 oh        1 MOL     -0.569330
    127 H57         2.9320   -2.5990    0.3900 hn        1 MOL      0.044742
    128 H58         3.0920   -5.3250   -0.5250 h1        1 MOL      0.042825
    129 H59         2.9510   -4.8790   -2.9090 h1        1 MOL     -0.032399
    130 H60         3.6020   -3.3080   -2.5980 h1        1 MOL     -0.032399
    131 H61         1.5740   -2.6340   -1.9870 ho        1 MOL      0.365560
    132 N12         5.5810   -4.8320   -1.1590 n         1 MOL     -0.636200
    133 C43         6.9960   -4.7230   -0.9470 c3        1 MOL      0.396272
    134 C44         7.5420   -3.3140   -1.1660 c         1 MOL      0.315504
    135 O18         8.2470   -2.7760   -0.3130 o         1 MOL     -0.513126
    136 C45         7.7040   -5.6490   -1.9130 c3        1 MOL     -0.398007
    137 H62         5.2540   -5.6010   -1.7240 hn        1 MOL      0.306337
    138 H63         7.2980   -4.9280    0.0790 h1        1 MOL      0.017600
    139 H64         8.6580   -5.9110   -1.4590 hc        1 MOL      0.107737
    140 H65         7.2130   -6.6190   -1.9110 hc        1 MOL      0.107737
    141 H66         7.6310   -5.2620   -2.9320 hc        1 MOL      0.107737
    142 N13         7.1180   -2.7220   -2.2480 n         1 MOL     -0.202067
    143 C46         7.6450   -1.4390   -2.7290 c3        1 MOL      0.068917
    144 C47         7.1130   -0.2090   -1.9870 c         1 MOL      0.384708
    145 O19         7.8510    0.7340   -1.6810 o         1 MOL     -0.523320
    146 C48         7.2900   -1.2270   -4.1990 c3        1 MOL     -0.272432
    147 H67         6.4120   -3.1840   -2.8050 hn        1 MOL      0.210780
    148 H68         8.7240   -1.4940   -2.5790 h1        1 MOL      0.110303
    149 H69         7.4770   -0.2260   -4.5900 hc        1 MOL      0.081101
    150 H70         7.8880   -1.9640   -4.7360 hc        1 MOL      0.081101
    151 H71         6.2310   -1.4400   -4.3330 hc        1 MOL      0.081101
    152 N14         5.8650   -0.1630   -1.4880 n         1 MOL     -0.221055
    153 C49         5.4240    0.9650   -0.5950 c3        1 MOL     -0.263081
    154 C50         6.0120    0.8860    0.8470 c         1 MOL      0.565888
    155 O20         6.1610    1.8990    1.4680 o         1 MOL     -0.589874
    156 C51         3.9220    1.1250   -0.6670 c3        1 MOL      0.021494
    157 C52         3.2340   -0.1690   -0.2460 c3        1 MOL     -0.049801
    158 C53         1.8150   -0.1020   -0.7030 c         1 MOL      0.803191
    159 O21         1.3790   -0.8730   -1.5760 o         1 MOL     -0.769944
    160 O22         1.0250    0.7000   -0.1710 o         1 MOL     -0.769944
    161 H72         5.1460   -0.8700   -1.6260 hn        1 MOL      0.203092
    162 H73         5.8230    1.9090   -0.9460 h1        1 MOL      0.160397
    163 H74         3.6170    1.5270   -1.6350 hc        1 MOL      0.033203
    164 H75         3.6340    1.8820    0.0580 hc        1 MOL      0.033203
    165 H76         3.2730   -0.5040    0.7940 hc        1 MOL     -0.020508
    166 H77         3.7060   -0.9970   -0.7580 hc        1 MOL     -0.020508
    167 N15         6.3390   -0.3090    1.3100 n         1 MOL     -0.068308
    168 C54         6.9750   -0.3910    2.5690 c3        1 MOL     -0.183784
    169 H78         8.0210   -0.1010    2.4670 h1        1 MOL      0.072143
    170 H79         6.4800    0.2790    3.2710 h1        1 MOL      0.072143
    171 H80         6.9170   -1.4140    2.9400 h1        1 MOL      0.072143
    172 H81         6.0650   -1.1710    0.8600 hn        1 MOL      0.182932
    173 Ca1        -1.2300   -0.1840   -1.4850 Ca        1 MOL      1.679749
    174 O23        -1.0590   -2.7710   -1.8900 oh        1 MOL     -0.849647
    175 H82        -1.5070   -3.5470   -2.2270 ho        1 MOL      0.414874
    176 H83        -0.1420   -2.9210   -2.1020 ho        1 MOL      0.414874
    177 O24        -1.2680   -0.9210   -4.1110 oh        1 MOL     -0.849647
    178 H84        -1.8510   -0.3550   -4.6070 ho        1 MOL      0.414874
    179 H85        -0.5550   -1.1220   -4.7200 ho        1 MOL      0.414874
@<TRIPOS>BOND
     1    1    2 1   
     2    1    4 1   
     3    1    5 1   
     4    1    6 1   
     5    2    3 2   
     6    2    7 1   
     7    7    8 1   
     8    7   15 1   
     9    8    9 1   
    10    8   11 1   
    11    8   16 1   
    12    9   10 2   
    13    9   19 1   
    14   11   12 1   
    15   11   17 1   
    16   11   18 1   
    17   12   13 1   
    18   12   14 1   
    19   19   20 1   
    20   19   28 1   
    21   20   21 1   
    22   20   23 1   
    23   20   29 1   
    24   21   22 2   
    25   21   41 1   
    26   23   24 1   
    27   23   30 1   
    28   23   31 1   
    29   24   25 1   
    30   24   32 1   
    31   24   33 1   
    32   25   26 1   
    33   25   34 1   
    34   25   35 1   
    35   26   27 1   
    36   26   36 1   
    37   26   37 1   
    38   27   38 1   
    39   27   39 1   
    40   27   40 1   
    41   41   42 1   
    42   41   49 1   
    43   42   43 1   
    44   42   45 1   
    45   42   50 1   
    46   43   44 2   
    47   43   53 1   
    48   45   46 1   
    49   45   51 1   
    50   45   52 1   
    51   46   47 1   
    52   46   48 1   
    53   53   54 1   
    54   53   57 1   
    55   54   55 1   
    56   54   58 1   
    57   54   59 1   
    58   55   56 2   
    59   55   60 1   
    60   60   61 1   
    61   60   68 1   
    62   61   62 1   
    63   61   64 1   
    64   61   69 1   
    65   62   63 2   
    66   62   74 1   
    67   64   65 1   
    68   64   70 1   
    69   64   71 1   
    70   65   66 1   
    71   65   67 2   
    72   66   72 1   
    73   66   73 1   
    74   74   75 1   
    75   74   78 1   
    76   75   76 1   
    77   75   79 1   
    78   75   80 1   
    79   76   77 2   
    80   76   81 1   
    81   81   82 1   
    82   81   93 1   
    83   82   83 1   
    84   82   85 1   
    85   82   94 1   
    86   83   84 2   
    87   83  102 1   
    88   85   86 1   
    89   85   95 1   
    90   85   96 1   
    91   86   87 ar  
    92   86   88 ar  
    93   87   89 ar  
    94   87   97 1   
    95   88   90 ar  
    96   88   98 1   
    97   89   91 ar  
    98   89   99 1   
    99   90   91 ar  
   100   90  100 1   
   101   91   92 1   
   102   92  101 1   
   103  102  103 1   
   104  102  110 1   
   105  103  104 1   
   106  103  106 1   
   107  103  111 1   
   108  104  105 2   
   109  104  121 1   
   110  106  107 1   
   111  106  108 1   
   112  106  112 1   
   113  107  109 1   
   114  107  113 1   
   115  107  114 1   
   116  108  115 1   
   117  108  116 1   
   118  108  117 1   
   119  109  118 1   
   120  109  119 1   
   121  109  120 1   
   122  121  122 1   
   123  121  127 1   
   124  122  123 1   
   125  122  125 1   
   126  122  128 1   
   127  123  124 2   
   128  123  132 1   
   129  125  126 1   
   130  125  129 1   
   131  125  130 1   
   132  126  131 1   
   133  132  133 1   
   134  132  137 1   
   135  133  134 1   
   136  133  136 1   
   137  133  138 1   
   138  134  135 2   
   139  134  142 1   
   140  136  139 1   
   141  136  140 1   
   142  136  141 1   
   143  142  143 1   
   144  142  147 1   
   145  143  144 1   
   146  143  146 1   
   147  143  148 1   
   148  144  145 2   
   149  144  152 1   
   150  146  149 1   
   151  146  150 1   
   152  146  151 1   
   153  152  153 1   
   154  152  161 1   
   155  153  154 1   
   156  153  156 1   
   157  153  162 1   
   158  154  155 2   
   159  154  167 1   
   160  156  157 1   
   161  156  163 1   
   162  156  164 1   
   163  157  158 1   
   164  157  165 1   
   165  157  166 1   
   166  158  159 1   
   167  158  160 1   
   168  167  168 1   
   169  167  172 1   
   170  168  169 1   
   171  168  170 1   
   172  168  171 1   
   173  174  175 1   
   174  174  176 1   
   175  177  178 1   
   176  177  179 1   
@<TRIPOS>SUBSTRUCTURE
     1 MOL         1 TEMP              0 ****  ****    0 ROOT
