@<TRIPOS>MOLECULE
MOL
  182   178     1     0     0
SMALL
resp


@<TRIPOS>ATOM
      1 C1          0.0760   -4.9600    5.8140 c3        1 MOL     -0.461122
      2 C2          0.1970   -4.5280    4.3390 c         1 MOL      0.866362
      3 O1         -0.7090   -4.5270    3.5320 o         1 MOL     -0.652987
      4 H1          0.0230   -6.0470    5.8710 hc        1 MOL      0.121077
      5 H2          0.9460   -4.6100    6.3690 hc        1 MOL      0.121077
      6 H3         -0.8280   -4.5300    6.2460 hc        1 MOL      0.121077
      7 N1          1.4070   -4.1060    3.9300 n         1 MOL     -0.710347
      8 C3          1.6460   -3.7470    2.4810 c3        1 MOL      0.168580
      9 C4          1.5800   -4.9080    1.5080 c         1 MOL      0.380260
     10 O2          2.0010   -6.0110    1.8830 o         1 MOL     -0.527498
     11 C5          2.9750   -2.8870    2.3050 c3        1 MOL      0.213175
     12 C6          2.8510   -1.9360    1.1580 c         1 MOL      0.609936
     13 O3          3.5050   -0.8610    1.0960 o         1 MOL     -0.757085
     14 O4          2.1930   -2.2550    0.1190 o         1 MOL     -0.757085
     15 H4          2.1580   -4.1380    4.6110 hn        1 MOL      0.337385
     16 H5          0.8950   -3.0260    2.1790 h1        1 MOL     -0.057311
     17 H6          3.8750   -3.4980    2.2450 hc        1 MOL     -0.042384
     18 H7          3.0510   -2.2400    3.1830 hc        1 MOL     -0.042384
     19 N2          1.0810   -4.7900    0.2890 n         1 MOL     -0.250861
     20 C7          1.2290   -5.8200   -0.7050 c3        1 MOL      0.004897
     21 C8          2.3450   -5.6000   -1.6770 c         1 MOL      0.469703
     22 O5          2.8100   -6.5920   -2.2440 o         1 MOL     -0.564553
     23 C9         -0.1430   -6.0700   -1.4220 c3        1 MOL      0.132885
     24 C10        -1.3470   -6.2470   -0.5210 c3        1 MOL     -0.041412
     25 C11        -2.5590   -6.9140   -1.2340 c3        1 MOL     -0.111929
     26 C12        -3.8280   -6.8890   -0.2850 c3        1 MOL      0.052306
     27 N3         -4.9270   -7.7300   -0.8100 n4        1 MOL     -0.275617
     28 H8          0.6300   -3.9060    0.1040 hn        1 MOL      0.268876
     29 H9          1.5250   -6.7390   -0.1980 h1        1 MOL      0.089961
     30 H10        -0.1240   -6.9350   -2.0930 hc        1 MOL     -0.030475
     31 H11        -0.2770   -5.1850   -2.0470 hc        1 MOL     -0.030475
     32 H12        -1.6640   -5.2700   -0.1560 hc        1 MOL      0.041679
     33 H13        -1.0400   -6.9500    0.2550 hc        1 MOL      0.041679
     34 H14        -2.2810   -7.9310   -1.5230 hc        1 MOL      0.060199
     35 H15        -2.7440   -6.3860   -2.1700 hc        1 MOL      0.060199
     36 H16        -4.2450   -5.8950   -0.1630 hx        1 MOL      0.083970
     37 H17        -3.6150   -7.2100    0.7330 hx        1 MOL      0.083970
     38 H18        -5.7150   -7.7010   -0.1830 hn        1 MOL      0.273433
     39 H19        -5.2700   -7.4690   -1.7190 hn        1 MOL      0.273433
     40 H20        -4.7540   -8.7290   -0.8060 hn        1 MOL      0.273433
     41 N4          2.8050   -4.3770   -1.9110 n         1 MOL     -0.332453
     42 C13         3.9250   -4.0570   -2.8690 c3        1 MOL      0.068558
     43 C14         5.2410   -3.7050   -2.1580 c         1 MOL      0.421122
     44 O6          6.2340   -3.7140   -2.8410 o         1 MOL     -0.534887
     45 C15         3.5470   -2.9580   -3.9380 c3        1 MOL     -0.420782
     46 C16         2.8090   -1.7250   -3.3460 c         1 MOL      0.763925
     47 O7          1.6560   -1.3990   -3.6870 o         1 MOL     -0.728017
     48 O8          3.3910   -1.1100   -2.4380 o         1 MOL     -0.728017
     49 H21         2.3680   -3.6350   -1.3830 hn        1 MOL      0.255008
     50 H22         4.1870   -5.0090   -3.3290 h1        1 MOL      0.107055
     51 H23         2.8520   -3.3470   -4.6890 hc        1 MOL      0.123848
     52 H24         4.4450   -2.6740   -4.4910 hc        1 MOL      0.123848
     53 N5          5.1930   -3.2800   -0.9240 n         1 MOL     -0.080469
     54 C17         6.3070   -2.8450   -0.1200 c3        1 MOL     -0.129561
     55 C18         6.6850   -1.3330   -0.2860 c         1 MOL      0.533305
     56 O9          7.7960   -0.9540    0.1380 o         1 MOL     -0.557959
     57 H25         4.3530   -3.4910   -0.3800 hn        1 MOL      0.124103
     58 H26         7.1490   -3.5040   -0.3330 h1        1 MOL      0.081257
     59 H27         6.0920   -2.8940    0.9510 h1        1 MOL      0.081257
     60 N6          5.9430   -0.5670   -1.1040 n         1 MOL     -0.224963
     61 C19         6.3830    0.6640   -1.7140 c3        1 MOL      0.059194
     62 C20         5.4610    1.9010   -1.4160 c         1 MOL      0.448570
     63 O10         4.2840    1.6690   -1.1390 o         1 MOL     -0.477501
     64 C21         6.3770    0.4210   -3.2030 c3        1 MOL     -0.177459
     65 C22         7.4010    1.2740   -3.8810 c         1 MOL      0.633169
     66 N7          7.0730    1.8550   -5.0120 n         1 MOL     -0.840991
     67 O11         8.5300    1.4690   -3.4420 o         1 MOL     -0.536011
     68 H28         5.0030   -0.8580   -1.3320 hn        1 MOL      0.225295
     69 H29         7.3730    0.9750   -1.3970 h1        1 MOL      0.039733
     70 H30         5.3760    0.5930   -3.6020 hc        1 MOL      0.070573
     71 H31         6.5030   -0.6310   -3.4500 hc        1 MOL      0.070573
     72 H32         6.2340    1.5530   -5.5020 hn        1 MOL      0.376336
     73 H33         7.8200    2.3020   -5.5220 hn        1 MOL      0.376336
     74 N8          5.9660    3.1740   -1.5160 n         1 MOL     -0.368649
     75 C23         5.1890    4.4110   -1.3090 c3        1 MOL     -0.151931
     76 C24         4.3240    4.4440   -0.0300 c         1 MOL      0.588659
     77 O12         4.8190    4.1300    1.0200 o         1 MOL     -0.487536
     78 H34         6.9620    3.2040   -1.6720 hn        1 MOL      0.307687
     79 H35         4.6380    4.7030   -2.2040 h1        1 MOL      0.092798
     80 H36         5.9000    5.2070   -1.0810 h1        1 MOL      0.092798
     81 N9          3.0440    4.7510   -0.1830 n         1 MOL     -0.614603
     82 C25         2.0760    4.6560    0.9260 c3        1 MOL      0.226965
     83 C26         1.8270    3.2280    1.5490 c         1 MOL      0.528583
     84 O13         2.2990    2.2470    1.0160 o         1 MOL     -0.435815
     85 C27         0.8010    5.4050    0.5030 c3        1 MOL     -0.075349
     86 C28         1.0830    6.8730    0.2460 ca        1 MOL      0.104467
     87 C29         0.9390    7.3150   -1.0610 ca        1 MOL     -0.226678
     88 C30         1.1840    7.7590    1.3680 ca        1 MOL     -0.226678
     89 C31         1.0400    8.6900   -1.3060 ca        1 MOL     -0.168314
     90 C32         1.2540    9.0630    1.0500 ca        1 MOL     -0.168314
     91 C33         1.1550    9.5710   -0.2680 ca        1 MOL      0.280059
     92 O14         1.2640   10.9250   -0.4790 oh        1 MOL     -0.491691
     93 H37         2.7220    5.0000   -1.1120 hn        1 MOL      0.314612
     94 H38         2.4270    5.2490    1.7720 h1        1 MOL      0.034638
     95 H39         0.1140    5.2690    1.3440 hc        1 MOL      0.018994
     96 H40         0.2620    4.8640   -0.2690 hc        1 MOL      0.018994
     97 H41         0.8410    6.6290   -1.8890 ha        1 MOL      0.145932
     98 H42         1.1280    7.3620    2.3710 ha        1 MOL      0.145932
     99 H43         0.9980    9.0550   -2.3110 ha        1 MOL      0.134014
    100 H44         1.3070    9.7570    1.8760 ha        1 MOL      0.134014
    101 H45         1.3000   11.4480    0.3280 ho        1 MOL      0.376322
    102 N10         1.1600    3.1780    2.7210 n         1 MOL     -0.631456
    103 C34         0.9810    1.9600    3.5170 c3        1 MOL      0.084730
    104 C35         0.1900    0.8230    2.8170 c         1 MOL      0.421119
    105 O15         0.6000    0.2200    1.7690 o         1 MOL     -0.510140
    106 C36         2.2880    1.3870    4.1520 c3        1 MOL      0.172871
    107 C37         2.0710    0.3810    5.3700 c3        1 MOL     -0.280253
    108 C38         3.3150    2.4670    4.5450 c3        1 MOL      0.017196
    109 C39         1.2980    0.9710    6.5690 c3        1 MOL     -0.277248
    110 H46         0.7810    4.0410    3.0950 hn        1 MOL      0.328612
    111 H47         0.4820    2.2570    4.4410 h1        1 MOL      0.062860
    112 H48         2.8320    0.9050    3.3390 hc        1 MOL     -0.006227
    113 H49         3.0390    0.0950    5.7920 hc        1 MOL      0.125490
    114 H50         1.4760   -0.4850    5.0950 hc        1 MOL      0.125490
    115 H51         3.6170    3.1650    3.7700 hc        1 MOL      0.004092
    116 H52         2.9400    3.1220    5.3340 hc        1 MOL      0.004092
    117 H53         4.2170    1.9970    4.9390 hc        1 MOL      0.004092
    118 H54         1.6890    0.4990    7.4700 hc        1 MOL      0.074537
    119 H55         1.5220    2.0400    6.5520 hc        1 MOL      0.074537
    120 H56         0.2620    0.7530    6.3020 hc        1 MOL      0.074537
    121 N11        -0.9150    0.4230    3.4470 n         1 MOL     -0.310125
    122 C40        -1.5710   -0.8650    3.2080 c3        1 MOL     -0.022800
    123 C41        -2.7040   -0.8820    2.1180 c         1 MOL      0.400089
    124 O16        -3.0940   -1.9630    1.7630 o         1 MOL     -0.510042
    125 C42        -2.2850   -1.4340    4.4920 c3        1 MOL      0.075722
    126 O17        -1.5020   -1.1040    5.6360 oh        1 MOL     -0.564779
    127 H57        -1.1560    0.9660    4.2730 hn        1 MOL      0.235648
    128 H58        -0.8050   -1.5860    2.9190 h1        1 MOL      0.206260
    129 H59        -2.3860   -2.5030    4.3370 h1        1 MOL      0.062164
    130 H60        -3.3090   -1.0750    4.5560 h1        1 MOL      0.062164
    131 H61        -2.0500   -1.2790    6.4090 ho        1 MOL      0.391519
    132 N12        -3.1960    0.2240    1.6820 n         1 MOL     -0.168729
    133 C43        -4.2530    0.2840    0.6960 c3        1 MOL     -0.126910
    134 C44        -3.8670    0.0660   -0.7460 c         1 MOL      0.705116
    135 O18        -2.6490    0.2500   -1.0790 o         1 MOL     -0.657239
    136 C45        -4.9250    1.6870    0.8390 c3        1 MOL     -0.037076
    137 H62        -2.8580    1.0730    2.1150 hn        1 MOL      0.174469
    138 H63        -4.9180   -0.5300    0.9540 h1        1 MOL      0.098499
    139 H64        -4.2250    2.4530    0.4990 hc        1 MOL      0.037508
    140 H65        -5.8450    1.8440    0.2640 hc        1 MOL      0.037508
    141 H66        -5.0930    1.9240    1.8920 hc        1 MOL      0.037508
    142 N13        -4.6720   -0.0950   -1.7730 n         1 MOL     -0.603398
    143 C46        -6.1010   -0.0550   -1.7760 c3        1 MOL      0.350784
    144 C47        -6.7920    1.3060   -2.3320 c         1 MOL      0.425940
    145 O19        -6.2050    2.0270   -3.1110 o         1 MOL     -0.539926
    146 C48        -6.6350   -1.1020   -2.7660 c3        1 MOL     -0.414157
    147 H67        -4.2970   -0.0140   -2.7030 hn        1 MOL      0.353938
    148 H68        -6.4500   -0.2600   -0.7650 h1        1 MOL      0.007550
    149 H69        -6.5290   -0.7660   -3.8050 hc        1 MOL      0.117444
    150 H70        -5.9470   -1.9450   -2.7110 hc        1 MOL      0.117444
    151 H71        -7.6790   -1.3250   -2.5540 hc        1 MOL      0.117444
    152 N14        -8.0250    1.6020   -1.9400 n         1 MOL     -0.470562
    153 C49        -8.9100    1.1590   -0.8200 c3        1 MOL     -0.100602
    154 C50        -8.7660    2.1010    0.3860 c         1 MOL      0.422233
    155 O20        -8.6960    1.5610    1.5140 o         1 MOL     -0.501593
    156 C51       -10.2960    1.0380   -1.4380 c3        1 MOL      0.190636
    157 C52       -10.4800   -0.0890   -2.4000 c3        1 MOL     -0.185375
    158 C53       -11.9370   -0.1830   -2.7930 c         1 MOL      0.715514
    159 O21       -12.5920    0.8590   -2.9140 o         1 MOL     -0.686869
    160 O22       -12.3840   -1.3100   -3.0080 o         1 MOL     -0.686869
    161 H72        -8.4280    2.3820   -2.4400 hn        1 MOL      0.339712
    162 H73        -8.6180    0.1660   -0.4890 h1        1 MOL      0.104451
    163 H74       -10.4930    1.9650   -1.9570 hc        1 MOL     -0.018849
    164 H75       -11.0550    1.0180   -0.6510 hc        1 MOL     -0.018849
    165 H76       -10.2290   -1.0190   -1.8890 hc        1 MOL      0.021896
    166 H77        -9.8840    0.0470   -3.3110 hc        1 MOL      0.021896
    167 N15        -8.6800    3.4760    0.2620 n         1 MOL     -0.273214
    168 C54        -8.2930    4.3240    1.3420 c3        1 MOL     -0.229114
    169 H78        -8.4610    5.3650    1.0650 h1        1 MOL      0.110019
    170 H79        -8.8860    4.0840    2.2250 h1        1 MOL      0.110019
    171 H80        -7.2360    4.1740    1.5610 h1        1 MOL      0.110019
    172 H81        -8.8920    3.8410   -0.6530 hn        1 MOL      0.254451
    173 Ca1         1.8760    0.2910   -0.7190 Ca        1 MOL      1.781216
    174 O23         1.9140    1.7730   -2.8160 oh        1 MOL     -0.909059
    175 H82         2.0440    2.6990   -3.0070 ho        1 MOL      0.434769
    176 H83         2.0220    1.3330   -3.6630 ho        1 MOL      0.434769
    177 O24        -0.0920   -1.1940   -1.4650 oh        1 MOL     -0.909059
    178 H84        -1.0040   -0.8860   -1.4910 ho        1 MOL      0.434769
    179 H85        -0.0100   -1.7360   -2.2540 ho        1 MOL      0.434769
    180 O25        -0.5510    1.9800   -0.7010 oh        1 MOL     -0.909059
    181 H86        -1.3960    1.6020   -0.4640 ho        1 MOL      0.434769
    182 H87        -0.7500    2.6090   -1.3970 ho        1 MOL      0.434769
@<TRIPOS>BOND
     1    1    2 1   
     2    1    4 1   
     3    1    5 1   
     4    1    6 1   
     5    2    3 2   
     6    2    7 1   
     7    7    8 1   
     8    7   15 1   
     9    8    9 1   
    10    8   11 1   
    11    8   16 1   
    12    9   10 2   
    13    9   19 1   
    14   11   12 1   
    15   11   17 1   
    16   11   18 1   
    17   12   13 1   
    18   12   14 1   
    19   19   20 1   
    20   19   28 1   
    21   20   21 1   
    22   20   23 1   
    23   20   29 1   
    24   21   22 2   
    25   21   41 1   
    26   23   24 1   
    27   23   30 1   
    28   23   31 1   
    29   24   25 1   
    30   24   32 1   
    31   24   33 1   
    32   25   26 1   
    33   25   34 1   
    34   25   35 1   
    35   26   27 1   
    36   26   36 1   
    37   26   37 1   
    38   27   38 1   
    39   27   39 1   
    40   27   40 1   
    41   41   42 1   
    42   41   49 1   
    43   42   43 1   
    44   42   45 1   
    45   42   50 1   
    46   43   44 2   
    47   43   53 1   
    48   45   46 1   
    49   45   51 1   
    50   45   52 1   
    51   46   47 1   
    52   46   48 1   
    53   53   54 1   
    54   53   57 1   
    55   54   55 1   
    56   54   58 1   
    57   54   59 1   
    58   55   56 2   
    59   55   60 1   
    60   60   61 1   
    61   60   68 1   
    62   61   62 1   
    63   61   64 1   
    64   61   69 1   
    65   62   63 2   
    66   62   74 1   
    67   64   65 1   
    68   64   70 1   
    69   64   71 1   
    70   65   66 1   
    71   65   67 2   
    72   66   72 1   
    73   66   73 1   
    74   74   75 1   
    75   74   78 1   
    76   75   76 1   
    77   75   79 1   
    78   75   80 1   
    79   76   77 2   
    80   76   81 1   
    81   81   82 1   
    82   81   93 1   
    83   82   83 1   
    84   82   85 1   
    85   82   94 1   
    86   83   84 2   
    87   83  102 1   
    88   85   86 1   
    89   85   95 1   
    90   85   96 1   
    91   86   87 ar  
    92   86   88 ar  
    93   87   89 ar  
    94   87   97 1   
    95   88   90 ar  
    96   88   98 1   
    97   89   91 ar  
    98   89   99 1   
    99   90   91 ar  
   100   90  100 1   
   101   91   92 1   
   102   92  101 1   
   103  102  103 1   
   104  102  110 1   
   105  103  104 1   
   106  103  106 1   
   107  103  111 1   
   108  104  105 2   
   109  104  121 1   
   110  106  107 1   
   111  106  108 1   
   112  106  112 1   
   113  107  109 1   
   114  107  113 1   
   115  107  114 1   
   116  108  115 1   
   117  108  116 1   
   118  108  117 1   
   119  109  118 1   
   120  109  119 1   
   121  109  120 1   
   122  121  122 1   
   123  121  127 1   
   124  122  123 1   
   125  122  125 1   
   126  122  128 1   
   127  123  124 2   
   128  123  132 1   
   129  125  126 1   
   130  125  129 1   
   131  125  130 1   
   132  126  131 1   
   133  132  133 1   
   134  132  137 1   
   135  133  134 1   
   136  133  136 1   
   137  133  138 1   
   138  134  135 2   
   139  134  142 1   
   140  136  139 1   
   141  136  140 1   
   142  136  141 1   
   143  142  143 1   
   144  142  147 1   
   145  143  144 1   
   146  143  146 1   
   147  143  148 1   
   148  144  145 2   
   149  144  152 1   
   150  146  149 1   
   151  146  150 1   
   152  146  151 1   
   153  152  153 1   
   154  152  161 1   
   155  153  154 1   
   156  153  156 1   
   157  153  162 1   
   158  154  155 2   
   159  154  167 1   
   160  156  157 1   
   161  156  163 1   
   162  156  164 1   
   163  157  158 1   
   164  157  165 1   
   165  157  166 1   
   166  158  159 1   
   167  158  160 1   
   168  167  168 1   
   169  167  172 1   
   170  168  169 1   
   171  168  170 1   
   172  168  171 1   
   173  174  175 1   
   174  174  176 1   
   175  177  178 1   
   176  177  179 1   
   177  180  181 1   
   178  180  182 1   
@<TRIPOS>SUBSTRUCTURE
     1 MOL         1 TEMP              0 ****  ****    0 ROOT
