@<TRIPOS>MOLECULE
MOL
  195   189     1     0     0
SMALL
resp


@<TRIPOS>ATOM
      1 C1          4.2040    7.0810   -1.6730 c3        1 MOL     -0.409573
      2 C2          4.2550    5.5460   -1.6350 c         1 MOL      0.742334
      3 O1          4.4140    4.8960   -2.6710 o         1 MOL     -0.569742
      4 H1          4.8470    7.4460   -2.4740 hc        1 MOL      0.100963
      5 H2          3.1790    7.4060   -1.8530 hc        1 MOL      0.100963
      6 H3          4.5490    7.4800   -0.7200 hc        1 MOL      0.100963
      7 N1          4.0670    4.9580   -0.4340 n         1 MOL     -0.555941
      8 C3          3.8480    3.5900   -0.1400 c3        1 MOL      0.096809
      9 C4          2.3570    3.0880    0.0220 c         1 MOL      0.634108
     10 O2          2.1740    2.0120    0.5280 o         1 MOL     -0.560580
     11 C5          4.7870    3.0370    0.9350 c3        1 MOL     -0.232638
     12 C6          4.7040    3.8240    2.2890 c         1 MOL      0.667894
     13 O3          4.4610    3.1680    3.3250 o         1 MOL     -0.666046
     14 O4          4.8190    5.0730    2.2820 o         1 MOL     -0.666046
     15 H4          4.1720    5.5890    0.3540 hn        1 MOL      0.292055
     16 H5          3.9690    3.0850   -1.1000 h1        1 MOL      0.076302
     17 H6          5.7940    2.9800    0.5320 hc        1 MOL      0.073182
     18 H7          4.5130    2.0220    1.2230 hc        1 MOL      0.073182
     19 N2          1.3410    3.8070   -0.4190 n         1 MOL     -0.520627
     20 C7         -0.0880    3.4850   -0.2000 c3        1 MOL      0.189854
     21 C8         -0.8230    3.0420   -1.4650 c         1 MOL      0.591801
     22 O5         -0.8620    3.7150   -2.4300 o         1 MOL     -0.536294
     23 C9         -0.7820    4.6590    0.4570 c3        1 MOL     -0.192274
     24 C10        -0.4570    4.9950    1.8910 c3        1 MOL      0.064357
     25 C11        -1.4510    6.1030    2.4520 c3        1 MOL     -0.219341
     26 C12        -2.6670    5.2920    2.9320 c3        1 MOL      0.201318
     27 N3         -3.6150    6.0880    3.7130 n4        1 MOL     -0.453877
     28 H8          1.5970    4.6190   -0.9580 hn        1 MOL      0.256693
     29 H9         -0.1200    2.6990    0.5530 h1        1 MOL      0.084955
     30 H10        -1.8520    4.5080    0.4280 hc        1 MOL      0.064068
     31 H11        -0.6520    5.5480   -0.1530 hc        1 MOL      0.064068
     32 H12         0.5980    5.1860    2.0930 hc        1 MOL      0.025620
     33 H13        -0.5940    4.1000    2.5050 hc        1 MOL      0.025620
     34 H14        -1.6940    6.8620    1.7150 hc        1 MOL      0.072490
     35 H15        -0.9770    6.5400    3.3280 hc        1 MOL      0.072490
     36 H16        -2.2600    4.4310    3.4730 hx        1 MOL      0.050405
     37 H17        -3.1080    4.8270    2.0500 hx        1 MOL      0.050405
     38 H18        -4.4410    5.6010    4.0330 hn        1 MOL      0.343176
     39 H19        -3.2390    6.7210    4.4090 hn        1 MOL      0.343176
     40 H20        -4.0980    6.7730    3.1490 hn        1 MOL      0.343176
     41 N4         -1.4760    1.8530   -1.5220 n         1 MOL     -0.469783
     42 C13        -1.7720    0.8440   -0.5270 c3        1 MOL     -0.144497
     43 C14        -2.2880    1.4630    0.8200 c         1 MOL      0.243202
     44 O6         -1.7090    1.3460    1.9150 o         1 MOL     -0.529473
     45 C15        -0.5500   -0.1640   -0.3410 c3        1 MOL     -0.003806
     46 C16        -0.0990   -0.7930   -1.6400 c         1 MOL      0.773662
     47 O7          1.0990   -0.9090   -1.8980 o         1 MOL     -0.773136
     48 O8         -0.9430   -1.2460   -2.4250 o         1 MOL     -0.773136
     49 H21        -1.6480    1.5580   -2.4760 hn        1 MOL      0.288084
     50 H22        -2.6750    0.3210   -0.8280 h1        1 MOL      0.094729
     51 H23        -0.7580   -0.9520    0.3900 hc        1 MOL      0.048869
     52 H24         0.3470    0.3110    0.0630 hc        1 MOL      0.048869
     53 N5         -3.4130    2.2010    0.8300 n         1 MOL     -0.060438
     54 C17        -4.3830    2.2980   -0.2490 c3        1 MOL     -0.038233
     55 C18        -5.3770    3.3860    0.0870 c         1 MOL      0.437885
     56 O9         -5.2100    4.1990    1.0160 o         1 MOL     -0.585534
     57 H25        -3.6700    2.5120    1.7530 hn        1 MOL      0.196284
     58 H26        -4.8490    1.3100   -0.1890 h1        1 MOL      0.069717
     59 H27        -3.8960    2.4840   -1.2060 h1        1 MOL      0.069717
     60 N6         -6.4920    3.3710   -0.6080 n         1 MOL     -0.261898
     61 C19        -7.0320    2.5700   -1.7620 c3        1 MOL     -0.179728
     62 C20        -7.6290    1.2480   -1.2100 c         1 MOL      0.458970
     63 O10        -7.8720    1.0230   -0.0240 o         1 MOL     -0.446321
     64 C21        -7.7180    3.5310   -2.7760 c3        1 MOL     -0.084600
     65 C22        -8.8790    4.3140   -2.2450 c         1 MOL      0.688252
     66 O11        -9.2730    5.1890   -2.9850 o         1 MOL     -0.682626
     67 O12        -9.2620    4.2900   -1.0140 o         1 MOL     -0.682626
     68 H28        -7.1520    4.0140   -0.1910 hn        1 MOL      0.260682
     69 H29        -6.2170    2.3190   -2.4470 h1        1 MOL      0.063568
     70 H30        -8.1040    2.9450   -3.6070 hc        1 MOL      0.029005
     71 H31        -6.9040    4.1330   -3.1820 hc        1 MOL      0.029005
     72 N7         -7.7940    0.3210   -2.1550 n         1 MOL     -0.271469
     73 C23        -8.3540   -0.9960   -1.7690 c3        1 MOL     -0.202290
     74 C24        -7.4020   -1.9830   -1.0380 c         1 MOL      0.517534
     75 O13        -7.8900   -2.7340   -0.2270 o         1 MOL     -0.508231
     76 H32        -7.5520    0.4600   -3.1250 hn        1 MOL      0.272118
     77 H33        -8.6100   -1.4080   -2.7480 h1        1 MOL      0.118173
     78 H34        -9.3160   -0.8650   -1.2680 h1        1 MOL      0.118173
     79 N8         -6.0600   -1.8450   -1.2590 n         1 MOL     -0.318944
     80 C25        -4.9910   -2.7050   -0.7770 c3        1 MOL     -0.029492
     81 C26        -4.5170   -2.2950    0.6290 c         1 MOL      0.679979
     82 O14        -4.3960   -1.1070    0.7840 o         1 MOL     -0.508675
     83 C27        -3.8140   -2.5830   -1.7370 c3        1 MOL      0.148228
     84 C28        -3.7880   -3.3640   -3.0280 c3        1 MOL     -0.101463
     85 O15        -2.6190   -2.7500   -1.0100 oh        1 MOL     -0.295689
     86 H35        -5.7720   -1.0590   -1.8340 hn        1 MOL      0.136423
     87 H36        -5.3180   -3.7350   -0.6190 h1        1 MOL      0.055260
     88 H37        -3.8360   -1.5450   -2.0510 h1        1 MOL      0.089631
     89 H38        -2.0300   -2.1500   -1.4840 ho        1 MOL      0.273138
     90 H39        -2.8270   -3.2000   -3.5190 hc        1 MOL      0.011823
     91 H40        -3.9360   -4.4270   -2.8410 hc        1 MOL      0.011823
     92 H41        -4.5780   -3.0370   -3.7050 hc        1 MOL      0.011823
     93 N9         -4.1420   -3.2030    1.4960 n         1 MOL     -0.595426
     94 C29        -3.3590   -2.9740    2.7570 c3        1 MOL     -0.084140
     95 C30        -2.0210   -3.6990    2.7550 c         1 MOL      0.289134
     96 O16        -1.4970   -4.0420    3.7850 o         1 MOL     -0.481821
     97 C31        -4.1730   -3.3020    4.0440 c3        1 MOL      0.234655
     98 C32        -4.6340   -4.7800    4.2310 c3        1 MOL      0.003844
     99 C33        -5.4630   -2.4660    4.0220 c3        1 MOL     -0.435857
    100 C34        -5.3570   -5.0490    5.5740 c3        1 MOL     -0.293870
    101 H42        -4.3480   -4.1650    1.2640 hn        1 MOL      0.316498
    102 H43        -3.0510   -1.9360    2.9310 h1        1 MOL      0.175152
    103 H44        -3.5430   -3.0390    4.8940 hc        1 MOL     -0.002919
    104 H45        -3.7470   -5.3950    4.1710 hc        1 MOL      0.036000
    105 H46        -5.3210   -5.0640    3.4270 hc        1 MOL      0.036000
    106 H47        -6.1850   -3.0440    3.4420 hc        1 MOL      0.120252
    107 H48        -5.8280   -2.2800    5.0230 hc        1 MOL      0.120252
    108 H49        -5.1940   -1.5370    3.5020 hc        1 MOL      0.120252
    109 H50        -5.6170   -6.1040    5.6610 hc        1 MOL      0.077187
    110 H51        -4.7240   -4.8300    6.4390 hc        1 MOL      0.077187
    111 H52        -6.2970   -4.5020    5.6120 hc        1 MOL      0.077187
    112 N10        -1.5200   -4.0690    1.5310 n         1 MOL      0.040391
    113 C35        -0.2080   -4.7510    1.4080 c3        1 MOL      0.030774
    114 C36         0.8730   -3.6580    1.4430 c         1 MOL      0.555634
    115 O17         1.4360   -3.3370    0.4180 o         1 MOL     -0.575344
    116 C37        -0.0480   -5.7630    0.2850 c3        1 MOL      0.179756
    117 C38        -0.5520   -5.2330   -1.0100 c3        1 MOL     -0.379224
    118 O18        -0.8330   -6.8570    0.6120 oh        1 MOL     -0.625682
    119 H53        -2.0110   -3.7320    0.7190 hn        1 MOL      0.013354
    120 H54         0.0200   -5.3520    2.2870 h1        1 MOL      0.076134
    121 H55         0.9580   -6.1320    0.0900 h1        1 MOL      0.047126
    122 H56        -0.4530   -7.5370    0.0470 ho        1 MOL      0.422423
    123 H57        -0.1680   -5.9350   -1.7390 hc        1 MOL      0.093768
    124 H58        -1.6440   -5.2190   -1.0650 hc        1 MOL      0.093768
    125 H59        -0.1880   -4.2110   -1.1640 hc        1 MOL      0.093768
    126 N11         1.0850   -3.0160    2.6270 n         1 MOL     -0.536461
    127 C39         2.1260   -1.9490    2.7340 c3        1 MOL     -0.070464
    128 C40         3.5670   -2.4330    2.6110 c         1 MOL      0.692963
    129 O19         3.9810   -3.3430    3.3050 o         1 MOL     -0.563280
    130 C41         1.9420   -1.2560    4.0360 c3        1 MOL      0.427853
    131 C42         0.5850   -0.6910    4.3200 c3        1 MOL     -0.202331
    132 O20         2.7300   -0.1140    4.0930 oh        1 MOL     -0.674410
    133 H60         0.7310   -3.3870    3.4920 hn        1 MOL      0.289188
    134 H61         1.9040   -1.1830    1.9960 h1        1 MOL      0.106536
    135 H62         2.2650   -1.8950    4.8510 h1        1 MOL      0.020211
    136 H63         2.4440    0.5250    3.4330 ho        1 MOL      0.365314
    137 H64        -0.1910   -1.4120    4.5540 hc        1 MOL      0.053012
    138 H65         0.7030   -0.0660    5.2040 hc        1 MOL      0.053012
    139 H66         0.2900   -0.0550    3.4720 hc        1 MOL      0.053012
    140 N12         4.3650   -1.6770    1.8450 n         1 MOL     -0.619278
    141 C43         5.8610   -1.7940    1.7360 c3        1 MOL      0.136772
    142 C44         6.4770   -1.8800    0.2940 c         1 MOL      0.422931
    143 O21         7.7250   -2.1340    0.1310 o         1 MOL     -0.543992
    144 C45         6.5590   -0.6960    2.5860 c3        1 MOL     -0.103829
    145 C46         5.9160   -0.0540    3.8570 c3        1 MOL      0.054478
    146 C47         6.8220    0.7930    4.7160 c3        1 MOL     -0.068550
    147 C48         5.9880    1.2920    5.8990 c3        1 MOL     -0.023875
    148 N13         4.6010    1.7650    5.6180 n4        1 MOL     -0.231021
    149 H67         3.9490   -0.9060    1.3310 hn        1 MOL      0.330032
    150 H68         6.2070   -2.7230    2.1830 h1        1 MOL      0.089858
    151 H69         6.7270    0.1460    1.9190 hc        1 MOL      0.034909
    152 H70         7.5460   -1.0820    2.8190 hc        1 MOL      0.034909
    153 H71         5.5970   -0.8940    4.4760 hc        1 MOL      0.021333
    154 H72         5.0280    0.5290    3.5890 hc        1 MOL      0.021333
    155 H73         7.1740    1.6720    4.1690 hc        1 MOL      0.059598
    156 H74         7.7270    0.2760    5.0120 hc        1 MOL      0.059598
    157 H75         6.4990    2.2200    6.1860 hx        1 MOL      0.064080
    158 H76         6.0560    0.6140    6.7490 hx        1 MOL      0.064080
    159 H77         4.6060    2.4560    4.8780 hn        1 MOL      0.271589
    160 H78         4.1110    0.9360    5.3120 hn        1 MOL      0.271589
    161 H79         4.1450    2.1620    6.4250 hn        1 MOL      0.271589
    162 N14         5.7840   -1.5920   -0.8040 n         1 MOL     -0.433375
    163 C49         6.3730   -1.2760   -2.1180 c3        1 MOL      0.179408
    164 C50         7.0720    0.1290   -2.0600 c         1 MOL      0.423895
    165 O22         6.3700    1.1740   -1.9820 o         1 MOL     -0.508159
    166 C51         5.1930   -1.1900   -3.1910 c3        1 MOL     -0.266545
    167 C52         5.8170   -1.2800   -4.5970 c3        1 MOL      0.169509
    168 C53         4.7100   -0.9730   -5.5790 c         1 MOL      0.696865
    169 O23         4.9870   -0.7550   -6.7900 o         1 MOL     -0.714893
    170 O24         3.4730   -1.0980   -5.2670 o         1 MOL     -0.714893
    171 H80         4.7930   -1.4010   -0.7300 hn        1 MOL      0.311338
    172 H81         7.1660   -1.9670   -2.4040 h1        1 MOL      0.004590
    173 H82         4.7080   -0.2330   -3.0180 hc        1 MOL      0.028728
    174 H83         4.4880   -2.0090   -3.0830 hc        1 MOL      0.028728
    175 H84         6.1610   -2.3050   -4.7460 hc        1 MOL     -0.046342
    176 H85         6.6760   -0.6280   -4.7240 hc        1 MOL     -0.046342
    177 N15         8.3450    0.1800   -2.2020 n         1 MOL     -0.183069
    178 C54         9.1190    1.3430   -2.0830 c3        1 MOL     -0.074063
    179 H86         9.4940    1.6310   -3.0640 h1        1 MOL      0.062890
    180 H87         8.5060    2.1490   -1.6780 h1        1 MOL      0.062890
    181 H88         9.9600    1.1550   -1.4140 h1        1 MOL      0.062890
    182 H89         8.8650   -0.6810   -2.3150 hn        1 MOL      0.228884
    183 Ca1         1.1730   -2.0340   -4.4450 Ca        1 MOL      1.778330
    184 O25         2.1710   -3.4240   -2.4100 oh        1 MOL     -0.886896
    185 H90         2.8760   -4.0780   -2.4000 ho        1 MOL      0.436979
    186 H91         1.9120   -3.3380   -1.4940 ho        1 MOL      0.436979
    187 O26        -0.7210   -4.3130   -4.3300 oh        1 MOL     -0.886896
    188 H92        -1.0080   -4.3220   -5.2420 ho        1 MOL      0.436979
    189 H93        -1.2370   -5.0040   -3.9170 ho        1 MOL      0.436979
    190 O27         2.5430   -4.2530   -5.2320 oh        1 MOL     -0.886896
    191 H94         2.0360   -5.0560   -5.0660 ho        1 MOL      0.436979
    192 H95         3.3000   -4.3300   -4.6550 ho        1 MOL      0.436979
    193 O28         1.0010    0.4710   -4.8020 oh        1 MOL     -0.886896
    194 H96         0.3480    1.1120   -5.0870 ho        1 MOL      0.436979
    195 H97         1.6420    0.9830   -4.3250 ho        1 MOL      0.436979
@<TRIPOS>BOND
     1    1    2 1   
     2    1    4 1   
     3    1    5 1   
     4    1    6 1   
     5    2    3 2   
     6    2    7 1   
     7    7    8 1   
     8    7   15 1   
     9    8    9 1   
    10    8   11 1   
    11    8   16 1   
    12    9   10 2   
    13    9   19 1   
    14   11   12 1   
    15   11   17 1   
    16   11   18 1   
    17   12   13 1   
    18   12   14 1   
    19   19   20 1   
    20   19   28 1   
    21   20   21 1   
    22   20   23 1   
    23   20   29 1   
    24   21   22 2   
    25   21   41 1   
    26   23   24 1   
    27   23   30 1   
    28   23   31 1   
    29   24   25 1   
    30   24   32 1   
    31   24   33 1   
    32   25   26 1   
    33   25   34 1   
    34   25   35 1   
    35   26   27 1   
    36   26   36 1   
    37   26   37 1   
    38   27   38 1   
    39   27   39 1   
    40   27   40 1   
    41   41   42 1   
    42   41   49 1   
    43   42   43 1   
    44   42   45 1   
    45   42   50 1   
    46   43   44 2   
    47   43   53 1   
    48   45   46 1   
    49   45   51 1   
    50   45   52 1   
    51   46   47 1   
    52   46   48 1   
    53   53   54 1   
    54   53   57 1   
    55   54   55 1   
    56   54   58 1   
    57   54   59 1   
    58   55   56 2   
    59   55   60 1   
    60   60   61 1   
    61   60   68 1   
    62   61   62 1   
    63   61   64 1   
    64   61   69 1   
    65   62   63 2   
    66   62   72 1   
    67   64   65 1   
    68   64   70 1   
    69   64   71 1   
    70   65   66 1   
    71   65   67 1   
    72   72   73 1   
    73   72   76 1   
    74   73   74 1   
    75   73   77 1   
    76   73   78 1   
    77   74   75 2   
    78   74   79 1   
    79   79   80 1   
    80   79   86 1   
    81   80   81 1   
    82   80   83 1   
    83   80   87 1   
    84   81   82 2   
    85   81   93 1   
    86   83   84 1   
    87   83   85 1   
    88   83   88 1   
    89   84   90 1   
    90   84   91 1   
    91   84   92 1   
    92   85   89 1   
    93   93   94 1   
    94   93  101 1   
    95   94   95 1   
    96   94   97 1   
    97   94  102 1   
    98   95   96 2   
    99   95  112 1   
   100   97   98 1   
   101   97   99 1   
   102   97  103 1   
   103   98  100 1   
   104   98  104 1   
   105   98  105 1   
   106   99  106 1   
   107   99  107 1   
   108   99  108 1   
   109  100  109 1   
   110  100  110 1   
   111  100  111 1   
   112  112  113 1   
   113  112  119 1   
   114  113  114 1   
   115  113  116 1   
   116  113  120 1   
   117  114  115 2   
   118  114  126 1   
   119  116  117 1   
   120  116  118 1   
   121  116  121 1   
   122  117  123 1   
   123  117  124 1   
   124  117  125 1   
   125  118  122 1   
   126  126  127 1   
   127  126  133 1   
   128  127  128 1   
   129  127  130 1   
   130  127  134 1   
   131  128  129 2   
   132  128  140 1   
   133  130  131 1   
   134  130  132 1   
   135  130  135 1   
   136  131  137 1   
   137  131  138 1   
   138  131  139 1   
   139  132  136 1   
   140  140  141 1   
   141  140  149 1   
   142  141  142 1   
   143  141  144 1   
   144  141  150 1   
   145  142  143 2   
   146  142  162 1   
   147  144  145 1   
   148  144  151 1   
   149  144  152 1   
   150  145  146 1   
   151  145  153 1   
   152  145  154 1   
   153  146  147 1   
   154  146  155 1   
   155  146  156 1   
   156  147  148 1   
   157  147  157 1   
   158  147  158 1   
   159  148  159 1   
   160  148  160 1   
   161  148  161 1   
   162  162  163 1   
   163  162  171 1   
   164  163  164 1   
   165  163  166 1   
   166  163  172 1   
   167  164  165 2   
   168  164  177 1   
   169  166  167 1   
   170  166  173 1   
   171  166  174 1   
   172  167  168 1   
   173  167  175 1   
   174  167  176 1   
   175  168  169 1   
   176  168  170 1   
   177  177  178 1   
   178  177  182 1   
   179  178  179 1   
   180  178  180 1   
   181  178  181 1   
   182  184  185 1   
   183  184  186 1   
   184  187  188 1   
   185  187  189 1   
   186  190  191 1   
   187  190  192 1   
   188  193  194 1   
   189  193  195 1   
@<TRIPOS>SUBSTRUCTURE
     1 MOL         1 TEMP              0 ****  ****    0 ROOT
