@<TRIPOS>MOLECULE
MOL
  198   191     1     0     0
SMALL
resp


@<TRIPOS>ATOM
      1 C1          2.6600    6.9300   -3.3810 c3        1 MOL     -0.351349
      2 C2          3.3530    5.6420   -2.9780 c         1 MOL      0.590394
      3 O1          2.7830    4.5750   -3.1990 o         1 MOL     -0.534798
      4 H1          3.0030    7.7430   -2.7410 hc        1 MOL      0.094014
      5 H2          2.8970    7.1620   -4.4190 hc        1 MOL      0.094014
      6 H3          1.5810    6.8130   -3.2710 hc        1 MOL      0.094014
      7 N1          4.5280    5.7240   -2.3770 n         1 MOL     -0.430112
      8 C3          5.3560    4.6250   -1.9570 c3        1 MOL     -0.064526
      9 C4          4.7100    3.4340   -1.1650 c         1 MOL      0.571595
     10 O2          3.8730    3.6240   -0.2930 o         1 MOL     -0.534530
     11 C5          6.4730    5.1730   -1.0590 c3        1 MOL     -0.440071
     12 C6          5.9850    6.1340    0.0020 c         1 MOL      0.910944
     13 O3          5.4790    5.7510    1.1100 o         1 MOL     -0.780567
     14 O4          6.0800    7.3880   -0.2720 o         1 MOL     -0.780567
     15 H4          4.9060    6.6630   -2.3780 hn        1 MOL      0.337215
     16 H5          5.8370    4.2380   -2.8610 h1        1 MOL      0.092151
     17 H6          7.1300    5.7830   -1.6790 hc        1 MOL      0.134944
     18 H7          6.9470    4.3300   -0.5640 hc        1 MOL      0.134944
     19 N2          5.0760    2.1980   -1.6150 n         1 MOL     -0.521777
     20 C7          4.3340    0.9570   -1.6060 c3        1 MOL     -0.017545
     21 C8          4.4320    0.1560   -0.3360 c         1 MOL      0.627316
     22 O5          4.1960   -1.0340   -0.3010 o         1 MOL     -0.525124
     23 C9          4.6080    0.0820   -2.8590 c3        1 MOL      0.123153
     24 C10         6.1010   -0.2630   -2.9410 c3        1 MOL     -0.334568
     25 C11         6.4390   -1.4140   -3.9700 c3        1 MOL      0.133541
     26 C12         7.9810   -1.8120   -3.9820 c3        1 MOL     -0.024903
     27 N3          8.4860   -2.6830   -5.0220 n4        1 MOL     -0.120203
     28 H8          5.8950    2.3180   -2.1970 hn        1 MOL      0.255987
     29 H9          3.2900    1.2660   -1.5900 h1        1 MOL      0.120482
     30 H10         4.3570    0.7310   -3.7030 hc        1 MOL      0.062557
     31 H11         3.9540   -0.7730   -2.7080 hc        1 MOL      0.062557
     32 H12         6.4650   -0.6430   -1.9900 hc        1 MOL      0.104224
     33 H13         6.5910    0.6260   -3.3320 hc        1 MOL      0.104224
     34 H14         6.0680   -1.1300   -4.9560 hc        1 MOL     -0.026486
     35 H15         5.8440   -2.3050   -3.7650 hc        1 MOL     -0.026486
     36 H16         8.2570   -2.2990   -3.0480 hx        1 MOL      0.075305
     37 H17         8.4700   -0.8420   -4.0780 hx        1 MOL      0.075305
     38 H18         9.4470   -2.9810   -4.9110 hn        1 MOL      0.214463
     39 H19         7.9620   -3.5490   -5.0240 hn        1 MOL      0.214463
     40 H20         8.3170   -2.2960   -5.9370 hn        1 MOL      0.214463
     41 N4          4.8790    0.8270    0.7480 n         1 MOL     -0.521166
     42 C13         5.3080    0.1500    1.9330 c3        1 MOL     -0.234875
     43 C14         4.1830   -0.1550    2.8920 c         1 MOL      0.689531
     44 O6          3.2840    0.6390    3.0340 o         1 MOL     -0.617654
     45 C15         6.4200    0.8710    2.6770 c3        1 MOL      0.314151
     46 C16         6.3950    2.3820    2.9680 c         1 MOL      0.458555
     47 O7          7.4540    2.8020    3.4880 o         1 MOL     -0.641447
     48 O8          5.3880    3.0540    2.6970 o         1 MOL     -0.641447
     49 H21         4.9470    1.8280    0.6660 hn        1 MOL      0.334673
     50 H22         5.7050   -0.8060    1.5980 h1        1 MOL      0.136444
     51 H23         7.4280    0.6000    2.3420 hc        1 MOL     -0.052624
     52 H24         6.4730    0.3290    3.6310 hc        1 MOL     -0.052624
     53 N5          4.0460   -1.2740    3.6220 n         1 MOL     -0.524844
     54 C17         5.0930   -2.2690    3.9470 c3        1 MOL     -0.153568
     55 C18         4.6610   -3.7590    3.8650 c         1 MOL      0.569774
     56 O9          5.4680   -4.6930    3.9320 o         1 MOL     -0.570831
     57 H25         3.2640   -1.2040    4.2670 hn        1 MOL      0.358923
     58 H26         5.3100   -2.1890    5.0150 h1        1 MOL      0.113520
     59 H27         5.9630   -2.2080    3.2850 h1        1 MOL      0.113520
     60 N6          3.3820   -4.0610    3.5890 n         1 MOL     -0.394974
     61 C19         2.9060   -5.4710    3.2740 c3        1 MOL      0.164880
     62 C20         1.8790   -5.5530    2.1290 c         1 MOL      0.433493
     63 O10         1.0730   -4.6280    1.8160 o         1 MOL     -0.550455
     64 C21         2.4380   -6.2600    4.5160 c3        1 MOL     -0.135333
     65 C22         1.5630   -5.3880    5.4020 c         1 MOL      0.675901
     66 O11         2.0870   -4.6760    6.2540 o         1 MOL     -0.638019
     67 O12         0.3360   -5.3160    5.2510 o         1 MOL     -0.638019
     68 H28         2.7870   -3.2510    3.6410 hn        1 MOL      0.270935
     69 H29         3.8210   -5.9730    2.9530 h1        1 MOL      0.022334
     70 H30         3.2960   -6.5370    5.1310 hc        1 MOL      0.017986
     71 H31         1.9990   -7.2020    4.1760 hc        1 MOL      0.017986
     72 N7          1.9520   -6.6540    1.4510 n         1 MOL     -0.345744
     73 C23         0.9870   -7.1370    0.4830 c3        1 MOL      0.026254
     74 C24         1.0880   -6.6050   -0.8900 c         1 MOL      0.470345
     75 O13         0.5420   -7.1780   -1.8250 o         1 MOL     -0.552097
     76 H32         2.6430   -7.3230    1.7730 hn        1 MOL      0.272313
     77 H33         0.0030   -6.7790    0.7940 h1        1 MOL      0.065634
     78 H34         0.9940   -8.2300    0.4780 h1        1 MOL      0.065634
     79 N8          1.8470   -5.5370   -1.0460 n         1 MOL     -0.357810
     80 C25         1.7990   -4.7620   -2.3010 c3        1 MOL      0.188843
     81 C26         1.5990   -3.2600   -1.9350 c         1 MOL      0.375578
     82 O14         1.7400   -2.9070   -0.7670 o         1 MOL     -0.418579
     83 C27         2.9840   -4.9870   -3.2030 c3        1 MOL      0.053668
     84 C28         4.2510   -4.4510   -2.6140 c3        1 MOL     -0.140586
     85 O15         3.2180   -6.3600   -3.3100 oh        1 MOL     -0.568140
     86 H35         2.2710   -5.0270   -0.2870 hn        1 MOL      0.220529
     87 H36         0.9500   -5.1420   -2.8570 h1        1 MOL      0.049339
     88 H37         2.8510   -4.6200   -4.2260 h1        1 MOL      0.037118
     89 H38         2.6340   -6.7480   -3.9630 ho        1 MOL      0.402598
     90 H39         4.4080   -4.9630   -1.6570 hc        1 MOL      0.058677
     91 H40         5.1480   -4.7780   -3.1500 hc        1 MOL      0.058677
     92 H41         4.2780   -3.3880   -2.3750 hc        1 MOL      0.058677
     93 N9          1.0610   -2.5390   -2.8800 n         1 MOL     -0.427951
     94 C29         0.5640   -1.1660   -2.7090 c3        1 MOL     -0.089741
     95 C30        -0.6700   -1.0860   -1.8240 c         1 MOL      0.772506
     96 O16        -0.9350   -0.0370   -1.2540 o         1 MOL     -0.601700
     97 C31         0.4140   -0.6040   -4.1610 c3        1 MOL      0.107716
     98 C32         1.7360   -0.7800   -4.9240 c3        1 MOL      0.134280
     99 C33        -0.0130    0.8090   -4.1240 c3        1 MOL     -0.247641
    100 C34         1.9340    0.0830   -6.2190 c3        1 MOL     -0.306454
    101 H42         0.7820   -2.9730   -3.7490 hn        1 MOL      0.257752
    102 H43         1.3300   -0.6230   -2.1610 h1        1 MOL      0.038893
    103 H44        -0.3740   -1.1960   -4.6130 hc        1 MOL      0.009892
    104 H45         1.8550   -1.8280   -5.1850 hc        1 MOL     -0.042983
    105 H46         2.5800   -0.5940   -4.2610 hc        1 MOL     -0.042983
    106 H47        -0.7830    1.0480   -3.3850 hc        1 MOL      0.072157
    107 H48         0.8130    1.4980   -3.9780 hc        1 MOL      0.072157
    108 H49        -0.5570    1.1350   -5.0060 hc        1 MOL      0.072157
    109 H50         2.7660   -0.2970   -6.8040 hc        1 MOL      0.075820
    110 H51         1.0580   -0.0630   -6.8620 hc        1 MOL      0.075820
    111 H52         2.0610    1.1420   -5.9950 hc        1 MOL      0.075820
    112 N10        -1.4060   -2.1430   -1.6880 n         1 MOL     -0.626007
    113 C35        -2.4490   -2.3780   -0.6780 c3        1 MOL      0.060246
    114 C36        -3.6920   -3.1050   -1.3190 c         1 MOL      0.740404
    115 O17        -3.6560   -3.7010   -2.3810 o         1 MOL     -0.553596
    116 C37        -1.9040   -3.2550    0.4750 c3        1 MOL      0.311989
    117 C38        -2.8960   -3.7960    1.5230 c3        1 MOL     -0.474046
    118 O18        -1.3150   -4.4270    0.0150 oh        1 MOL     -0.601410
    119 H53        -1.1620   -2.9670   -2.2180 hn        1 MOL      0.301670
    120 H54        -2.8380   -1.4480   -0.2590 h1        1 MOL      0.051877
    121 H55        -1.0850   -2.7290    0.9610 h1        1 MOL      0.028178
    122 H56        -0.6820   -4.5320    0.7370 ho        1 MOL      0.478427
    123 H57        -3.6370   -4.3010    0.9010 hc        1 MOL      0.116840
    124 H58        -2.4450   -4.5250    2.2020 hc        1 MOL      0.116840
    125 H59        -3.3800   -2.9650    2.0340 hc        1 MOL      0.116840
    126 N11        -4.8080   -2.9150   -0.6650 n         1 MOL     -0.656159
    127 C39        -6.1520   -3.1370   -1.2610 c3        1 MOL     -0.010587
    128 C40        -7.1670   -1.9570   -1.3600 c         1 MOL      0.593902
    129 O19        -7.9450   -1.8980   -2.3040 o         1 MOL     -0.541815
    130 C41        -6.8270   -4.3680   -0.6160 c3        1 MOL      0.442566
    131 C42        -7.9920   -4.8660   -1.4360 c3        1 MOL     -0.621103
    132 O20        -7.2080   -3.8880    0.6200 oh        1 MOL     -0.654278
    133 H60        -4.7850   -2.4300    0.2210 hn        1 MOL      0.313853
    134 H61        -6.0410   -3.4490   -2.2990 h1        1 MOL      0.098931
    135 H62        -6.1540   -5.2200   -0.4810 h1        1 MOL      0.020750
    136 H63        -7.1590   -4.5950    1.2630 ho        1 MOL      0.402749
    137 H64        -8.9020   -4.2750   -1.3650 hc        1 MOL      0.161397
    138 H65        -7.6190   -4.8540   -2.4570 hc        1 MOL      0.161397
    139 H66        -8.3070   -5.8210   -1.0200 hc        1 MOL      0.161397
    140 N12        -7.1660   -1.0960   -0.3350 n         1 MOL     -0.500853
    141 C43        -8.1240    0.0440   -0.2400 c3        1 MOL     -0.013951
    142 C44        -7.5280    1.2190    0.5530 c         1 MOL      0.602101
    143 O21        -7.1050    1.1350    1.6810 o         1 MOL     -0.526825
    144 C45        -9.4160   -0.5710    0.3670 c3        1 MOL     -0.117645
    145 C46       -10.6470    0.3870    0.6020 c3        1 MOL     -0.080824
    146 C47       -11.8690   -0.4160    1.2140 c3        1 MOL     -0.143756
    147 C48       -13.0560    0.5020    1.3700 c3        1 MOL      0.149315
    148 N13       -14.0490   -0.0960    2.3250 n4        1 MOL     -0.399596
    149 H67        -6.5600   -1.2710    0.4530 hn        1 MOL      0.324322
    150 H68        -8.3170    0.4910   -1.2130 h1        1 MOL      0.120881
    151 H69        -9.1020   -1.0430    1.2970 hc        1 MOL      0.080285
    152 H70        -9.6660   -1.4230   -0.2800 hc        1 MOL      0.080285
    153 H71       -10.9010    0.6650   -0.4160 hc        1 MOL      0.069333
    154 H72       -10.3780    1.2490    1.2200 hc        1 MOL      0.069333
    155 H73       -11.5090   -0.8700    2.1370 hc        1 MOL      0.072149
    156 H74       -12.1140   -1.0880    0.3860 hc        1 MOL      0.072149
    157 H75       -13.4960    0.5240    0.3690 hx        1 MOL      0.063354
    158 H76       -12.7460    1.5190    1.6360 hx        1 MOL      0.063354
    159 H77       -13.6440   -0.3570    3.2130 hn        1 MOL      0.286720
    160 H78       -14.6430    0.6570    2.6460 hn        1 MOL      0.286720
    161 H79       -14.4690   -0.9440    1.9850 hn        1 MOL      0.286720
    162 N14        -7.5000    2.3870   -0.1080 n         1 MOL     -0.687211
    163 C49        -6.9140    3.6350    0.4410 c3        1 MOL      0.470028
    164 C50        -5.3810    3.6080    0.3290 c         1 MOL      0.343769
    165 O22        -4.8160    4.0020    1.2980 o         1 MOL     -0.552493
    166 C51        -7.5910    4.8620   -0.2850 c3        1 MOL     -0.045582
    167 C52        -7.1510    6.1730    0.2500 c3        1 MOL     -0.105226
    168 C53        -7.8250    7.4520   -0.3200 c         1 MOL      0.708214
    169 O23        -8.9360    7.2610   -0.8750 o         1 MOL     -0.672924
    170 O24        -7.3010    8.5750   -0.1900 o         1 MOL     -0.672924
    171 H80        -7.9990    2.4710   -0.9840 hn        1 MOL      0.257840
    172 H81        -7.1810    3.7030    1.4940 h1        1 MOL      0.005155
    173 H82        -8.6690    4.7670   -0.1110 hc        1 MOL     -0.000250
    174 H83        -7.2860    4.8180   -1.3330 hc        1 MOL     -0.000250
    175 H84        -6.0730    6.2680    0.0750 hc        1 MOL      0.002446
    176 H85        -7.3260    6.1780    1.3260 hc        1 MOL      0.002446
    177 N15        -4.6870    3.2300   -0.7270 n         1 MOL     -0.268115
    178 C54        -5.0760    2.9440   -2.1390 c3        1 MOL     -0.134705
    179 H86        -4.8790    1.8960   -2.3640 h1        1 MOL      0.084096
    180 H87        -6.1370    3.1510   -2.2730 h1        1 MOL      0.084096
    181 H88        -4.4940    3.5750   -2.8110 h1        1 MOL      0.084096
    182 H89        -3.7160    3.1890   -0.4620 hn        1 MOL      0.267897
    183 Ca1         3.3920    4.7690    2.3300 Ca        1 MOL      1.724199
    184 O25         3.4360    3.7900    4.8210 oh        1 MOL     -0.837692
    185 H90         3.3910    4.0750    5.7300 ho        1 MOL      0.422920
    186 H91         4.0480    3.0560    4.8340 ho        1 MOL      0.422920
    187 O26         0.7830    5.2480    2.8560 oh        1 MOL     -0.837692
    188 H92         0.1040    4.6220    3.1010 ho        1 MOL      0.422920
    189 H93         0.3500    6.1030    2.8680 ho        1 MOL      0.422920
    190 O27         3.3510    6.9340    3.9500 oh        1 MOL     -0.837692
    191 H94         3.1260    7.2950    4.8040 ho        1 MOL      0.422920
    192 H95         3.5800    7.6930    3.4260 ho        1 MOL      0.422920
    193 O28         1.9150    2.5590    1.5330 oh        1 MOL     -0.837692
    194 H96         2.2950    1.6810    1.5630 ho        1 MOL      0.422920
    195 H97         0.9990    2.4160    1.2670 ho        1 MOL      0.422920
    196 O29         2.6620    6.8520    0.9650 oh        1 MOL     -0.837692
    197 H98         1.9070    7.4520    1.0000 ho        1 MOL      0.422920
    198 H99         3.2260    7.2170    0.2840 ho        1 MOL      0.422920
@<TRIPOS>BOND
     1    1    2 1   
     2    1    4 1   
     3    1    5 1   
     4    1    6 1   
     5    2    3 2   
     6    2    7 1   
     7    7    8 1   
     8    7   15 1   
     9    8    9 1   
    10    8   11 1   
    11    8   16 1   
    12    9   10 2   
    13    9   19 1   
    14   11   12 1   
    15   11   17 1   
    16   11   18 1   
    17   12   13 1   
    18   12   14 1   
    19   19   20 1   
    20   19   28 1   
    21   20   21 1   
    22   20   23 1   
    23   20   29 1   
    24   21   22 2   
    25   21   41 1   
    26   23   24 1   
    27   23   30 1   
    28   23   31 1   
    29   24   25 1   
    30   24   32 1   
    31   24   33 1   
    32   25   26 1   
    33   25   34 1   
    34   25   35 1   
    35   26   27 1   
    36   26   36 1   
    37   26   37 1   
    38   27   38 1   
    39   27   39 1   
    40   27   40 1   
    41   41   42 1   
    42   41   49 1   
    43   42   43 1   
    44   42   45 1   
    45   42   50 1   
    46   43   44 2   
    47   43   53 1   
    48   45   46 1   
    49   45   51 1   
    50   45   52 1   
    51   46   47 1   
    52   46   48 1   
    53   53   54 1   
    54   53   57 1   
    55   54   55 1   
    56   54   58 1   
    57   54   59 1   
    58   55   56 2   
    59   55   60 1   
    60   60   61 1   
    61   60   68 1   
    62   61   62 1   
    63   61   64 1   
    64   61   69 1   
    65   62   63 2   
    66   62   72 1   
    67   64   65 1   
    68   64   70 1   
    69   64   71 1   
    70   65   66 1   
    71   65   67 1   
    72   72   73 1   
    73   72   76 1   
    74   73   74 1   
    75   73   77 1   
    76   73   78 1   
    77   74   75 2   
    78   74   79 1   
    79   79   80 1   
    80   79   86 1   
    81   80   81 1   
    82   80   83 1   
    83   80   87 1   
    84   81   82 2   
    85   81   93 1   
    86   83   84 1   
    87   83   85 1   
    88   83   88 1   
    89   84   90 1   
    90   84   91 1   
    91   84   92 1   
    92   85   89 1   
    93   93   94 1   
    94   93  101 1   
    95   94   95 1   
    96   94   97 1   
    97   94  102 1   
    98   95   96 2   
    99   95  112 1   
   100   97   98 1   
   101   97   99 1   
   102   97  103 1   
   103   98  100 1   
   104   98  104 1   
   105   98  105 1   
   106   99  106 1   
   107   99  107 1   
   108   99  108 1   
   109  100  109 1   
   110  100  110 1   
   111  100  111 1   
   112  112  113 1   
   113  112  119 1   
   114  113  114 1   
   115  113  116 1   
   116  113  120 1   
   117  114  115 2   
   118  114  126 1   
   119  116  117 1   
   120  116  118 1   
   121  116  121 1   
   122  117  123 1   
   123  117  124 1   
   124  117  125 1   
   125  118  122 1   
   126  126  127 1   
   127  126  133 1   
   128  127  128 1   
   129  127  130 1   
   130  127  134 1   
   131  128  129 2   
   132  128  140 1   
   133  130  131 1   
   134  130  132 1   
   135  130  135 1   
   136  131  137 1   
   137  131  138 1   
   138  131  139 1   
   139  132  136 1   
   140  140  141 1   
   141  140  149 1   
   142  141  142 1   
   143  141  144 1   
   144  141  150 1   
   145  142  143 2   
   146  142  162 1   
   147  144  145 1   
   148  144  151 1   
   149  144  152 1   
   150  145  146 1   
   151  145  153 1   
   152  145  154 1   
   153  146  147 1   
   154  146  155 1   
   155  146  156 1   
   156  147  148 1   
   157  147  157 1   
   158  147  158 1   
   159  148  159 1   
   160  148  160 1   
   161  148  161 1   
   162  162  163 1   
   163  162  171 1   
   164  163  164 1   
   165  163  166 1   
   166  163  172 1   
   167  164  165 2   
   168  164  177 1   
   169  166  167 1   
   170  166  173 1   
   171  166  174 1   
   172  167  168 1   
   173  167  175 1   
   174  167  176 1   
   175  168  169 1   
   176  168  170 1   
   177  177  178 1   
   178  177  182 1   
   179  178  179 1   
   180  178  180 1   
   181  178  181 1   
   182  184  185 1   
   183  184  186 1   
   184  187  188 1   
   185  187  189 1   
   186  190  191 1   
   187  190  192 1   
   188  193  194 1   
   189  193  195 1   
   190  196  197 1   
   191  196  198 1   
@<TRIPOS>SUBSTRUCTURE
     1 MOL         1 TEMP              0 ****  ****    0 ROOT
