@<TRIPOS>MOLECULE
MOL
  189   185     1     0     0
SMALL
resp


@<TRIPOS>ATOM
      1 C1          3.8730    4.3730   -3.5440 c3        1 MOL     -0.458719
      2 C2          4.8100    3.6610   -2.5070 c         1 MOL      0.838212
      3 O1          4.3500    3.4390   -1.3920 o         1 MOL     -0.681044
      4 H1          4.2800    4.2470   -4.5470 hc        1 MOL      0.121085
      5 H2          2.8780    3.9320   -3.4980 hc        1 MOL      0.121085
      6 H3          3.8120    5.4350   -3.3080 hc        1 MOL      0.121085
      7 N1          6.0510    3.2860   -2.8850 n         1 MOL     -0.791411
      8 C3          6.9390    2.2790   -2.2310 c3        1 MOL      0.470920
      9 C4          6.1780    1.0490   -1.7890 c         1 MOL      0.267634
     10 O2          5.7720    0.8740   -0.6360 o         1 MOL     -0.416726
     11 C5          7.8330    2.8580   -1.1270 c3        1 MOL     -0.221047
     12 C6          7.0540    3.7510   -0.0960 c         1 MOL      0.814871
     13 O3          6.3380    3.1730    0.7250 o         1 MOL     -0.752930
     14 O4          7.3410    4.9680    0.0020 o         1 MOL     -0.752930
     15 H4          6.4410    3.7280   -3.7150 hn        1 MOL      0.346160
     16 H5          7.6750    1.8930   -2.9350 h1        1 MOL     -0.026937
     17 H6          8.6120    3.4250   -1.6320 hc        1 MOL      0.017862
     18 H7          8.2390    1.9750   -0.6340 hc        1 MOL      0.017862
     19 N2          5.8070    0.2090   -2.8020 n         1 MOL     -0.618850
     20 C7          5.0890   -1.0930   -2.6910 c3        1 MOL      0.529020
     21 C8          5.9090   -2.1520   -2.0250 c         1 MOL      0.260804
     22 O5          6.2940   -3.1260   -2.6350 o         1 MOL     -0.538369
     23 C9          3.6280   -0.8380   -2.2270 c3        1 MOL      0.285512
     24 C10         2.7450   -2.1530   -2.3330 c3        1 MOL     -0.381459
     25 C11         2.9480    0.2670   -3.0940 c3        1 MOL     -0.069650
     26 C12         2.8730   -2.9540   -3.5690 c3        1 MOL     -0.541913
     27 H8          6.1410    0.4210   -3.7300 hn        1 MOL      0.289546
     28 H9          5.0600   -1.5360   -3.6920 h1        1 MOL     -0.058320
     29 H10         3.6440   -0.5080   -1.1940 hc        1 MOL     -0.200951
     30 H11         1.6730   -1.9550   -2.1840 hc        1 MOL      0.176704
     31 H12         3.0840   -2.7710   -1.5030 hc        1 MOL      0.176704
     32 H13         3.1020   -0.0010   -4.1380 hc        1 MOL     -0.011811
     33 H14         1.8870    0.2980   -2.8100 hc        1 MOL     -0.011811
     34 H15         3.4030    1.2390   -2.9210 hc        1 MOL     -0.011811
     35 H16         2.5700   -2.4160   -4.4600 hc        1 MOL      0.143992
     36 H17         3.9180   -3.2630   -3.6680 hc        1 MOL      0.143992
     37 H18         2.3220   -3.8550   -3.2850 hc        1 MOL      0.143992
     38 N3          6.4330   -1.8550   -0.7960 n         1 MOL     -0.134293
     39 C13         7.3290   -2.6940   -0.0290 c3        1 MOL      0.050944
     40 C14         6.7410   -4.0710    0.4000 c         1 MOL      0.585509
     41 O6          7.4010   -5.0870    0.3590 o         1 MOL     -0.547256
     42 C15         7.8380   -1.8700    1.1440 c3        1 MOL     -0.251870
     43 C16         8.9440   -2.6040    1.8970 c         1 MOL      0.683371
     44 O7          8.6970   -2.9610    3.0540 o         1 MOL     -0.720308
     45 O8          9.9880   -2.8440    1.2200 o         1 MOL     -0.720308
     46 H19         6.1110   -0.9890   -0.3850 hn        1 MOL      0.194360
     47 H20         8.2320   -2.9610   -0.5890 h1        1 MOL      0.029383
     48 H21         7.0050   -1.6230    1.8040 hc        1 MOL      0.068333
     49 H22         8.1950   -0.9440    0.6920 hc        1 MOL      0.068333
     50 N4          5.4660   -4.2430    0.9100 n         1 MOL     -0.477440
     51 C17         4.3910   -3.3090    1.2360 c3        1 MOL      0.014878
     52 C18         3.2810   -4.1390    1.9570 c         1 MOL      0.588556
     53 O9          3.1700   -5.3620    1.7190 o         1 MOL     -0.563178
     54 H23         5.2350   -5.2200    1.0500 hn        1 MOL      0.256421
     55 H24         3.9450   -2.7440    0.4140 h1        1 MOL      0.069089
     56 H25         4.8300   -2.5280    1.8430 h1        1 MOL      0.069089
     57 N5          2.4370   -3.4970    2.7970 n         1 MOL     -0.577586
     58 C19         2.4370   -2.0620    3.2210 c3        1 MOL      0.324856
     59 C20         2.3810   -1.0980    1.9730 c         1 MOL      0.214712
     60 O10         3.3580   -0.4390    1.6370 o         1 MOL     -0.519900
     61 C21         3.5220   -1.7740    4.2650 c3        1 MOL     -0.369654
     62 C22         3.2950   -0.3250    4.7540 c         1 MOL      0.788525
     63 O11         2.1380    0.0770    4.8450 o         1 MOL     -0.714103
     64 O12         4.3810    0.2930    5.1160 o         1 MOL     -0.714103
     65 H26         1.8300   -4.1690    3.2490 hn        1 MOL      0.274129
     66 H27         1.4710   -1.9180    3.6860 h1        1 MOL      0.050886
     67 H28         4.5320   -2.0240    3.9470 hc        1 MOL      0.101760
     68 H29         3.2730   -2.4700    5.0750 hc        1 MOL      0.101760
     69 N6          1.2420   -1.0190    1.2070 n         1 MOL     -0.095414
     70 C23        -0.0230   -1.7210    1.5070 c3        1 MOL     -0.187218
     71 C24        -0.4560   -2.7850    0.4190 c         1 MOL      0.336278
     72 O13         0.2260   -3.0420   -0.6100 o         1 MOL     -0.400544
     73 H30         1.1810   -0.2760    0.5340 hn        1 MOL      0.202862
     74 H31        -0.7850   -0.9370    1.5220 h1        1 MOL      0.105588
     75 H32        -0.1100   -2.1330    2.5120 h1        1 MOL      0.105588
     76 N7         -1.5640   -3.5360    0.7370 n         1 MOL     -0.329371
     77 C25        -1.9910   -4.7010   -0.0220 c3        1 MOL      0.017649
     78 C26        -2.2470   -4.4200   -1.4830 c         1 MOL      0.383662
     79 O14        -2.0900   -5.3410   -2.2990 o         1 MOL     -0.539320
     80 C27        -3.1630   -5.4520    0.6930 c3        1 MOL      0.337154
     81 C28        -4.4640   -4.7240    0.6940 c3        1 MOL     -0.323397
     82 C29        -4.5720   -3.5880    1.7010 c         1 MOL      0.413484
     83 N8         -4.7050   -3.8750    2.9870 n         1 MOL     -0.610236
     84 O15        -4.3850   -2.3650    1.5020 o         1 MOL     -0.444466
     85 H33        -2.1220   -3.2400    1.5340 hn        1 MOL      0.264026
     86 H34        -1.1810   -5.4340    0.0460 h1        1 MOL      0.098692
     87 H35        -2.7650   -5.5110    1.7020 hc        1 MOL     -0.082916
     88 H36        -3.2900   -6.4450    0.2640 hc        1 MOL     -0.082916
     89 H37        -5.1930   -5.4730    1.0120 hc        1 MOL      0.127047
     90 H38        -4.7040   -4.4850   -0.3450 hc        1 MOL      0.127047
     91 H39        -4.7290   -4.8380    3.2580 hn        1 MOL      0.334850
     92 H40        -4.8410   -3.1080    3.6370 hn        1 MOL      0.334850
     93 N9         -2.7250   -3.2490   -1.9050 n         1 MOL      0.001563
     94 C30        -3.0240   -2.8210   -3.2810 c3        1 MOL     -0.402734
     95 C31        -4.4420   -2.1770   -3.4140 c         1 MOL      0.629332
     96 O16        -4.8850   -2.0030   -4.5340 o         1 MOL     -0.538000
     97 C32        -1.9160   -1.9170   -3.8830 c3        1 MOL      0.366723
     98 C33        -0.6340   -2.7250   -4.2180 c3        1 MOL     -0.422427
     99 C34        -1.5520   -0.8060   -2.9060 c3        1 MOL     -0.422427
    100 H41        -3.0710   -2.6970   -1.1330 hn        1 MOL      0.054275
    101 H42        -3.0620   -3.6890   -3.9350 h1        1 MOL      0.161349
    102 H43        -2.2000   -1.5300   -4.8590 hc        1 MOL     -0.005682
    103 H44        -0.3850   -3.4290   -3.4330 hc        1 MOL      0.111986
    104 H45        -0.7790   -3.3110   -5.1240 hc        1 MOL      0.111986
    105 H46         0.1860   -2.0070   -4.3080 hc        1 MOL      0.111986
    106 H47        -0.7340   -0.1870   -3.2740 hc        1 MOL      0.111986
    107 H48        -2.4060   -0.1190   -2.8390 hc        1 MOL      0.111986
    108 H49        -1.2690   -1.1340   -1.9080 hc        1 MOL      0.111986
    109 N10        -5.0050   -1.7090   -2.2580 n         1 MOL     -0.412228
    110 C35        -6.3440   -1.0550   -2.1640 c3        1 MOL     -0.016175
    111 C36        -6.4900    0.2540   -1.4240 c         1 MOL      0.622204
    112 O17        -7.3550    1.1220   -1.7590 o         1 MOL     -0.597929
    113 C37        -7.3490   -2.0470   -1.5450 c3        1 MOL     -0.317457
    114 C38        -7.4810   -3.3780   -2.2310 c         1 MOL      0.720789
    115 N11        -8.0470   -3.4210   -3.4460 n         1 MOL     -0.829295
    116 O18        -7.1080   -4.3600   -1.6070 o         1 MOL     -0.587767
    117 H50        -4.3870   -1.5480   -1.4790 hn        1 MOL      0.237958
    118 H51        -6.6130   -0.8380   -3.1990 h1        1 MOL      0.089627
    119 H52        -8.3640   -1.6470   -1.6490 hc        1 MOL      0.120753
    120 H53        -7.1300   -2.3250   -0.5180 hc        1 MOL      0.120753
    121 H54        -8.1020   -2.5850   -4.0130 hn        1 MOL      0.376697
    122 H55        -8.1960   -4.3310   -3.8640 hn        1 MOL      0.376697
    123 N12        -5.6610    0.5250   -0.4520 n         1 MOL     -0.471220
    124 C39        -5.8680    1.7300    0.3840 c3        1 MOL      0.036025
    125 C40        -4.6020    2.4720    0.4430 c         1 MOL      0.626141
    126 O19        -3.4810    1.9220    0.3270 o         1 MOL     -0.487766
    127 C41        -6.3070    1.2790    1.8300 c3        1 MOL     -0.152493
    128 C42        -7.6340    0.5650    1.7930 ca        1 MOL      0.107247
    129 C43        -8.8100    1.2690    2.1970 ca        1 MOL     -0.144701
    130 C44        -7.7020   -0.7780    1.5710 ca        1 MOL     -0.144701
    131 C45       -10.0460    0.5820    2.3080 ca        1 MOL     -0.297079
    132 C46        -8.8790   -1.5230    1.8200 ca        1 MOL     -0.297079
    133 C47       -10.0730   -0.8510    2.2850 ca        1 MOL      0.347349
    134 O20       -11.1360   -1.5600    2.6370 oh        1 MOL     -0.485424
    135 H56        -4.9570   -0.1560   -0.1880 hn        1 MOL      0.240494
    136 H57        -6.6390    2.3880   -0.0280 h1        1 MOL      0.095653
    137 H58        -6.3600    2.1260    2.5200 hc        1 MOL      0.101686
    138 H59        -5.5290    0.5650    2.0980 hc        1 MOL      0.101686
    139 H60        -8.7270    2.3270    2.3950 ha        1 MOL      0.130784
    140 H61        -6.8070   -1.2730    1.2400 ha        1 MOL      0.130784
    141 H62       -10.9630    1.0630    2.6030 ha        1 MOL      0.134537
    142 H63        -8.9090   -2.5740    1.5540 ha        1 MOL      0.134537
    143 H64       -11.7080   -1.0260    3.1890 ho        1 MOL      0.366607
    144 N13        -4.6550    3.8000    0.6800 n         1 MOL     -0.676379
    145 C48        -3.5760    4.7120    1.1520 c3        1 MOL      0.273160
    146 C49        -2.3810    4.9330    0.1860 c         1 MOL      0.348018
    147 O21        -1.4970    5.7170    0.5220 o         1 MOL     -0.472850
    148 C50        -3.1430    4.3410    2.5560 c3        1 MOL     -0.016643
    149 C51        -4.2760    4.0650    3.5250 c3        1 MOL     -0.199045
    150 C52        -3.7680    4.0710    4.9320 c         1 MOL      0.721759
    151 O22        -3.2060    3.1410    5.5470 o         1 MOL     -0.738083
    152 O23        -4.1850    5.0000    5.6380 o         1 MOL     -0.738083
    153 H65        -5.5620    4.1590    0.4070 hn        1 MOL      0.294875
    154 H66        -3.9720    5.7080    1.3330 h1        1 MOL      0.039818
    155 H67        -2.5950    5.1960    2.9600 hc        1 MOL      0.033450
    156 H68        -2.4990    3.4620    2.5050 hc        1 MOL      0.033450
    157 H69        -4.6040    3.0570    3.2740 hc        1 MOL      0.011412
    158 H70        -5.0430    4.8490    3.5050 hc        1 MOL      0.011412
    159 N14        -2.3880    4.3400   -1.0120 n         1 MOL     -0.514525
    160 C53        -1.1880    4.4010   -1.9460 c3        1 MOL      0.165238
    161 C54        -1.5160    5.1850   -3.2430 c         1 MOL      0.484996
    162 O24        -0.6020    5.7240   -3.8430 o         1 MOL     -0.536870
    163 C55        -0.6460    2.9660   -2.3870 c3        1 MOL     -0.125676
    164 C56        -0.3550    2.0950   -1.1150 c3        1 MOL      0.506865
    165 C57         1.0460    2.3950   -0.4900 c         1 MOL      0.453154
    166 O25         1.1760    3.5540    0.0380 o         1 MOL     -0.579287
    167 O26         1.8940    1.5190   -0.4380 o         1 MOL     -0.579287
    168 H71        -3.0480    3.6050   -1.1960 hn        1 MOL      0.276430
    169 H72        -0.2980    4.8990   -1.5580 h1        1 MOL      0.079263
    170 H73         0.3100    3.0060   -2.9000 hc        1 MOL     -0.022676
    171 H74        -1.4540    2.4680   -2.9250 hc        1 MOL     -0.022676
    172 H75        -0.3530    1.0490   -1.4350 hc        1 MOL     -0.144955
    173 H76        -1.1860    2.1780   -0.4150 hc        1 MOL     -0.144955
    174 N15        -2.8040    5.2300   -3.6350 n         1 MOL     -0.242455
    175 C58        -3.3460    5.9500   -4.7440 c3        1 MOL     -0.351694
    176 H77        -2.7890    5.7010   -5.6460 h1        1 MOL      0.126247
    177 H78        -4.3930    5.6780   -4.8780 h1        1 MOL      0.126247
    178 H79        -3.2700    7.0200   -4.5540 h1        1 MOL      0.126247
    179 H80        -3.4450    4.8450   -2.9610 hn        1 MOL      0.216900
    180 Ca1         3.9370    2.1800    0.8700 Ca        1 MOL      1.809675
    181 O27         5.5730    1.2000    2.7260 oh        1 MOL     -0.940988
    182 H81         6.4180    1.4560    3.0950 ho        1 MOL      0.443446
    183 H82         5.0540    0.9100    3.4730 ho        1 MOL      0.443446
    184 O28         2.0940    1.9960    2.9540 oh        1 MOL     -0.940988
    185 H83         2.1120    1.5170    3.7800 ho        1 MOL      0.443446
    186 H84         1.3570    2.6040    3.0480 ho        1 MOL      0.443446
    187 O29         3.6350    4.5000    2.2900 oh        1 MOL     -0.940988
    188 H85         3.4040    4.8670    3.1380 ho        1 MOL      0.443446
    189 H86         4.1110    5.2000    1.8430 ho        1 MOL      0.443446
@<TRIPOS>BOND
     1    1    2 1   
     2    1    4 1   
     3    1    5 1   
     4    1    6 1   
     5    2    3 2   
     6    2    7 1   
     7    7    8 1   
     8    7   15 1   
     9    8    9 1   
    10    8   11 1   
    11    8   16 1   
    12    9   10 2   
    13    9   19 1   
    14   11   12 1   
    15   11   17 1   
    16   11   18 1   
    17   12   13 1   
    18   12   14 1   
    19   19   20 1   
    20   19   27 1   
    21   20   21 1   
    22   20   23 1   
    23   20   28 1   
    24   21   22 2   
    25   21   38 1   
    26   23   24 1   
    27   23   25 1   
    28   23   29 1   
    29   24   26 1   
    30   24   30 1   
    31   24   31 1   
    32   25   32 1   
    33   25   33 1   
    34   25   34 1   
    35   26   35 1   
    36   26   36 1   
    37   26   37 1   
    38   38   39 1   
    39   38   46 1   
    40   39   40 1   
    41   39   42 1   
    42   39   47 1   
    43   40   41 2   
    44   40   50 1   
    45   42   43 1   
    46   42   48 1   
    47   42   49 1   
    48   43   44 1   
    49   43   45 1   
    50   50   51 1   
    51   50   54 1   
    52   51   52 1   
    53   51   55 1   
    54   51   56 1   
    55   52   53 2   
    56   52   57 1   
    57   57   58 1   
    58   57   65 1   
    59   58   59 1   
    60   58   61 1   
    61   58   66 1   
    62   59   60 2   
    63   59   69 1   
    64   61   62 1   
    65   61   67 1   
    66   61   68 1   
    67   62   63 1   
    68   62   64 1   
    69   69   70 1   
    70   69   73 1   
    71   70   71 1   
    72   70   74 1   
    73   70   75 1   
    74   71   72 2   
    75   71   76 1   
    76   76   77 1   
    77   76   85 1   
    78   77   78 1   
    79   77   80 1   
    80   77   86 1   
    81   78   79 2   
    82   78   93 1   
    83   80   81 1   
    84   80   87 1   
    85   80   88 1   
    86   81   82 1   
    87   81   89 1   
    88   81   90 1   
    89   82   83 1   
    90   82   84 2   
    91   83   91 1   
    92   83   92 1   
    93   93   94 1   
    94   93  100 1   
    95   94   95 1   
    96   94   97 1   
    97   94  101 1   
    98   95   96 2   
    99   95  109 1   
   100   97   98 1   
   101   97   99 1   
   102   97  102 1   
   103   98  103 1   
   104   98  104 1   
   105   98  105 1   
   106   99  106 1   
   107   99  107 1   
   108   99  108 1   
   109  109  110 1   
   110  109  117 1   
   111  110  111 1   
   112  110  113 1   
   113  110  118 1   
   114  111  112 2   
   115  111  123 1   
   116  113  114 1   
   117  113  119 1   
   118  113  120 1   
   119  114  115 1   
   120  114  116 2   
   121  115  121 1   
   122  115  122 1   
   123  123  124 1   
   124  123  135 1   
   125  124  125 1   
   126  124  127 1   
   127  124  136 1   
   128  125  126 2   
   129  125  144 1   
   130  127  128 1   
   131  127  137 1   
   132  127  138 1   
   133  128  129 ar  
   134  128  130 ar  
   135  129  131 ar  
   136  129  139 1   
   137  130  132 ar  
   138  130  140 1   
   139  131  133 ar  
   140  131  141 1   
   141  132  133 ar  
   142  132  142 1   
   143  133  134 1   
   144  134  143 1   
   145  144  145 1   
   146  144  153 1   
   147  145  146 1   
   148  145  148 1   
   149  145  154 1   
   150  146  147 2   
   151  146  159 1   
   152  148  149 1   
   153  148  155 1   
   154  148  156 1   
   155  149  150 1   
   156  149  157 1   
   157  149  158 1   
   158  150  151 1   
   159  150  152 1   
   160  159  160 1   
   161  159  168 1   
   162  160  161 1   
   163  160  163 1   
   164  160  169 1   
   165  161  162 2   
   166  161  174 1   
   167  163  164 1   
   168  163  170 1   
   169  163  171 1   
   170  164  165 1   
   171  164  172 1   
   172  164  173 1   
   173  165  166 1   
   174  165  167 1   
   175  174  175 1   
   176  174  179 1   
   177  175  176 1   
   178  175  177 1   
   179  175  178 1   
   180  181  182 1   
   181  181  183 1   
   182  184  185 1   
   183  184  186 1   
   184  187  188 1   
   185  187  189 1   
@<TRIPOS>SUBSTRUCTURE
     1 MOL         1 TEMP              0 ****  ****    0 ROOT
