@<TRIPOS>MOLECULE
MOL
  195   189     1     0     0
SMALL
resp


@<TRIPOS>ATOM
      1 C1         -4.2570   -4.0420    2.7430 c3        1 MOL     -0.326546
      2 C2         -3.0260   -3.9440    1.8000 c         1 MOL      0.438161
      3 O1         -2.4760   -2.8570    1.6710 o         1 MOL     -0.463029
      4 H1         -4.7970   -4.9670    2.5400 hc        1 MOL      0.093533
      5 H2         -3.9220   -4.0380    3.7810 hc        1 MOL      0.093533
      6 H3         -4.9160   -3.1910    2.5700 hc        1 MOL      0.093533
      7 N1         -2.5860   -5.0750    1.2790 n         1 MOL     -0.527830
      8 C3         -1.5120   -5.4320    0.2850 c3        1 MOL     -0.120308
      9 C4         -0.1220   -5.0650    0.8100 c         1 MOL      0.768812
     10 O2          0.7730   -4.8050   -0.0030 o         1 MOL     -0.556431
     11 C5         -1.7690   -4.8710   -1.1180 c3        1 MOL     -0.349192
     12 C6         -3.1840   -4.7730   -1.6350 c         1 MOL      0.808246
     13 O3         -3.5300   -3.7430   -2.2570 o         1 MOL     -0.715957
     14 O4         -3.9950   -5.7200   -1.5510 o         1 MOL     -0.715957
     15 H4         -3.1620   -5.8800    1.4990 hn        1 MOL      0.340129
     16 H5         -1.5140   -6.5240    0.3060 h1        1 MOL      0.138879
     17 H6         -1.2790   -5.4380   -1.9050 hc        1 MOL      0.124429
     18 H7         -1.2770   -3.8950   -1.0350 hc        1 MOL      0.124429
     19 N2          0.0620   -4.7690    2.1110 n         1 MOL     -0.717828
     20 C7          1.3200   -4.1680    2.6150 c3        1 MOL      0.008797
     21 C8          2.4920   -5.1180    2.5510 c         1 MOL      0.483383
     22 O5          2.2600   -6.3510    2.7210 o         1 MOL     -0.559253
     23 C9          1.0860   -3.5940    4.0490 c3        1 MOL      0.233167
     24 C10         0.6040   -4.6320    5.1060 c3        1 MOL      0.001494
     25 C11         0.0550   -2.4510    3.9370 c3        1 MOL     -0.475995
     26 C12         0.9000   -4.1720    6.5970 c3        1 MOL     -0.172789
     27 H8         -0.7080   -4.7590    2.7480 hn        1 MOL      0.380225
     28 H9          1.5520   -3.2950    2.0020 h1        1 MOL      0.124471
     29 H10         2.0330   -3.1540    4.3480 hc        1 MOL      0.028942
     30 H11         1.1580   -5.5580    4.9040 hc        1 MOL      0.015747
     31 H12        -0.4560   -4.8370    4.9880 hc        1 MOL      0.015747
     32 H13        -0.1370   -2.0550    4.9450 hc        1 MOL      0.131541
     33 H14         0.3680   -1.7180    3.1870 hc        1 MOL      0.131541
     34 H15        -0.9360   -2.8310    3.6820 hc        1 MOL      0.131541
     35 H16         0.3910   -3.2490    6.8570 hc        1 MOL      0.035533
     36 H17         0.6150   -5.0040    7.2480 hc        1 MOL      0.035533
     37 H18         1.9700   -3.9780    6.7450 hc        1 MOL      0.035533
     38 N3          3.7260   -4.6760    2.3420 n         1 MOL     -0.391278
     39 C13         4.1920   -3.2790    2.1890 c3        1 MOL     -0.017509
     40 C14         4.5480   -2.8040    0.7680 c         1 MOL      0.578629
     41 O6          4.4410   -1.6100    0.4470 o         1 MOL     -0.626660
     42 C15         5.3610   -2.9410    3.2340 c3        1 MOL     -0.242695
     43 C16         6.4840   -3.9970    3.4570 c         1 MOL      0.734196
     44 O7          7.1220   -3.9850    4.5350 o         1 MOL     -0.712367
     45 O8          6.6480   -4.8880    2.5830 o         1 MOL     -0.712367
     46 H19         4.4710   -5.3210    2.5640 hn        1 MOL      0.291081
     47 H20         3.4020   -2.5720    2.4520 h1        1 MOL      0.031170
     48 H21         4.9420   -2.7940    4.2320 hc        1 MOL      0.061073
     49 H22         5.8010   -1.9680    2.9930 hc        1 MOL      0.061073
     50 N4          4.8730   -3.6820   -0.1230 n         1 MOL     -0.409119
     51 C17         5.2040   -3.3140   -1.5480 c3        1 MOL     -0.043796
     52 C18         6.6400   -2.8330   -1.6870 c         1 MOL      0.712434
     53 O9          7.5770   -3.4180   -1.1470 o         1 MOL     -0.575357
     54 H23         4.6940   -4.6370    0.1370 hn        1 MOL      0.303539
     55 H24         4.5690   -2.4880   -1.8700 h1        1 MOL      0.064746
     56 H25         5.1250   -4.1150   -2.2700 h1        1 MOL      0.064746
     57 N5          6.9200   -1.8070   -2.5010 n         1 MOL     -0.557241
     58 C19         8.2310   -1.2790   -2.7800 c3        1 MOL      0.157929
     59 C20         8.6100   -0.1960   -1.7330 c         1 MOL      0.477953
     60 O10         9.5360    0.5790   -1.9890 o         1 MOL     -0.564856
     61 C21         8.3040   -0.8360   -4.2370 c3        1 MOL     -0.195515
     62 C22         7.5730   -1.7440   -5.2780 c         1 MOL      0.690753
     63 O11         6.5690   -1.2310   -5.8470 o         1 MOL     -0.722883
     64 O12         7.8800   -2.9310   -5.4430 o         1 MOL     -0.722883
     65 H26         6.1260   -1.3500   -2.9330 hn        1 MOL      0.276284
     66 H27         8.9220   -2.0990   -2.5950 h1        1 MOL      0.078830
     67 H28         9.3190   -0.6050   -4.5590 hc        1 MOL      0.013669
     68 H29         7.8030    0.1270   -4.3420 hc        1 MOL      0.013669
     69 N6          8.0020   -0.1030   -0.5560 n         1 MOL     -0.369784
     70 C23         8.3900    0.9000    0.4780 c3        1 MOL     -0.015087
     71 C24         7.7700    2.2500    0.4090 c         1 MOL      0.530259
     72 O13         7.8720    2.9380    1.4060 o         1 MOL     -0.565381
     73 H30         7.2940   -0.7660   -0.2790 hn        1 MOL      0.268527
     74 H31         9.4640    1.0080    0.4950 h1        1 MOL      0.089571
     75 H32         8.0790    0.5100    1.4460 h1        1 MOL      0.089571
     76 N7          7.1140    2.6640   -0.6380 n         1 MOL     -0.375291
     77 C25         6.5220    4.0650   -0.8570 c3        1 MOL      0.166448
     78 C26         5.5330    4.4360    0.3420 c         1 MOL      0.344573
     79 O14         5.4160    5.5820    0.7420 o         1 MOL     -0.480796
     80 C27         7.5720    5.0960   -1.1470 c3        1 MOL      0.043674
     81 C28         8.1650    4.8630   -2.5150 c3        1 MOL     -0.156740
     82 C29         9.4270    5.7370   -2.8030 c         1 MOL      0.680215
     83 N8          9.9900    5.6860   -4.0470 n         1 MOL     -0.855520
     84 O15         9.8700    6.5000   -1.9590 o         1 MOL     -0.559409
     85 H33         7.0060    2.0460   -1.4260 hn        1 MOL      0.233535
     86 H34         5.7740    4.0540   -1.6540 h1        1 MOL      0.017768
     87 H35         8.2950    4.9110   -0.3590 hc        1 MOL      0.029609
     88 H36         7.1920    6.1020   -0.9920 hc        1 MOL      0.029609
     89 H37         7.4090    4.9820   -3.2950 hc        1 MOL      0.037469
     90 H38         8.5090    3.8290   -2.4730 hc        1 MOL      0.037469
     91 H39         9.6600    5.0630   -4.7710 hn        1 MOL      0.370567
     92 H40        10.7430    6.3350   -4.2060 hn        1 MOL      0.370567
     93 N9          4.9830    3.4170    1.0380 n         1 MOL     -0.187610
     94 C30         4.0380    3.5670    2.2300 c3        1 MOL     -0.010704
     95 C31         2.5370    3.3270    1.9910 c         1 MOL      0.504445
     96 O16         1.6610    3.9160    2.7130 o         1 MOL     -0.566706
     97 C32         4.4500    2.6570    3.4130 c3        1 MOL      0.220974
     98 C33         4.9310    1.2520    2.8900 c3        1 MOL     -0.311221
     99 C34         5.5430    3.3460    4.2580 c3        1 MOL     -0.311221
    100 H41         5.1340    2.4700    0.7240 hn        1 MOL      0.115355
    101 H42         4.1190    4.5910    2.5990 h1        1 MOL      0.095479
    102 H43         3.6440    2.3980    4.1120 hc        1 MOL      0.004334
    103 H44         5.0000    0.4900    3.6610 hc        1 MOL      0.079263
    104 H45         4.1630    0.8700    2.2110 hc        1 MOL      0.079263
    105 H46         5.8620    1.3470    2.3480 hc        1 MOL      0.079263
    106 H47         5.1100    4.3000    4.5270 hc        1 MOL      0.079263
    107 H48         5.6830    2.6520    5.0900 hc        1 MOL      0.079263
    108 H49         6.4670    3.4170    3.6760 hc        1 MOL      0.079263
    109 N10         2.2670    2.4830    1.0620 n         1 MOL     -0.583062
    110 C35         0.8890    2.0590    0.8790 c3        1 MOL      0.287015
    111 C36        -0.0500    2.9940    0.1070 c         1 MOL      0.654153
    112 O17         0.4420    3.8010   -0.6490 o         1 MOL     -0.560269
    113 C37         0.9910    0.5910    0.2970 c3        1 MOL     -0.197626
    114 C38        -0.2970   -0.2380    0.3840 c         1 MOL      0.649321
    115 N11        -0.2790   -1.3730   -0.3410 n         1 MOL     -0.836690
    116 O18        -1.2610    0.1510    1.0660 o         1 MOL     -0.546296
    117 H50         3.0350    2.0790    0.5390 hn        1 MOL      0.297262
    118 H51         0.4340    1.9370    1.8660 h1        1 MOL      0.003187
    119 H52         1.6900   -0.0280    0.8580 hc        1 MOL      0.057233
    120 H53         1.2400    0.8330   -0.7440 hc        1 MOL      0.057233
    121 H54         0.5330   -1.7420   -0.8060 hn        1 MOL      0.402834
    122 H55        -1.0710   -1.9520   -0.1030 hn        1 MOL      0.402834
    123 N12        -1.3820    2.8780    0.1590 n         1 MOL     -0.606543
    124 C39        -2.3500    3.7410   -0.4910 c3        1 MOL      0.187998
    125 C40        -3.7720    3.6560    0.0940 c         1 MOL      0.637865
    126 O19        -4.0960    2.6790    0.7480 o         1 MOL     -0.554916
    127 C41        -2.4890    3.3860   -2.0250 c3        1 MOL     -0.034846
    128 C42        -3.0090    1.9570   -2.3200 ca        1 MOL      0.162893
    129 C43        -2.2510    0.8140   -2.3710 ca        1 MOL     -0.220189
    130 C44        -4.3670    1.8980   -2.7910 ca        1 MOL     -0.220189
    131 C45        -2.8210   -0.4080   -2.6100 ca        1 MOL     -0.222252
    132 C46        -4.9640    0.6450   -3.1080 ca        1 MOL     -0.222252
    133 C47        -4.1780   -0.4980   -2.9860 ca        1 MOL      0.249344
    134 O20        -4.7340   -1.7250   -3.1410 oh        1 MOL     -0.471238
    135 H56        -1.7260    2.1490    0.7690 hn        1 MOL      0.292629
    136 H57        -2.0690    4.7910   -0.5730 h1        1 MOL      0.045243
    137 H58        -1.5460    3.4650   -2.5700 hc        1 MOL      0.010367
    138 H59        -3.0670    4.1330   -2.5740 hc        1 MOL      0.010367
    139 H60        -1.2050    0.8700   -2.1310 ha        1 MOL      0.135177
    140 H61        -5.0130    2.7710   -2.8070 ha        1 MOL      0.135177
    141 H62        -2.2960   -1.3360   -2.4600 ha        1 MOL      0.147150
    142 H63        -5.9740    0.5380   -3.4630 ha        1 MOL      0.147150
    143 H64        -4.0780   -2.3860   -2.9250 ho        1 MOL      0.342556
    144 N13        -4.5500    4.7480   -0.0630 n         1 MOL     -0.776549
    145 C48        -5.8030    5.1210    0.6080 c3        1 MOL      0.485932
    146 C49        -7.0180    5.0870   -0.4060 c         1 MOL      0.433233
    147 O21        -7.3150    6.0940   -1.0500 o         1 MOL     -0.551300
    148 C50        -5.5320    6.4710    1.2350 c3        1 MOL      0.004473
    149 C51        -6.7850    7.1310    1.8750 c3        1 MOL     -0.317653
    150 C52        -6.4200    8.6470    2.2180 c         1 MOL      0.718955
    151 O22        -6.2650    9.5090    1.2960 o         1 MOL     -0.714689
    152 O23        -6.5270    8.9730    3.4580 o         1 MOL     -0.714689
    153 H65        -4.1860    5.4570   -0.6870 hn        1 MOL      0.350027
    154 H66        -6.1300    4.4680    1.4210 h1        1 MOL     -0.076530
    155 H67        -5.0680    7.1250    0.5030 hc        1 MOL     -0.002032
    156 H68        -4.7160    6.3730    1.9450 hc        1 MOL     -0.002032
    157 H69        -6.9970    6.5040    2.7440 hc        1 MOL      0.057645
    158 H70        -7.6380    7.0670    1.1960 hc        1 MOL      0.057645
    159 N14        -7.6920    4.0070   -0.6700 n         1 MOL     -0.388159
    160 C53        -7.4330    2.6710   -0.2020 c3        1 MOL     -0.108819
    161 C54        -7.9460    2.4000    1.2580 c         1 MOL      0.535913
    162 O24        -9.0860    2.7330    1.5320 o         1 MOL     -0.543405
    163 C55        -8.0350    1.6610   -1.1930 c3        1 MOL      0.216831
    164 C56        -7.5230    0.2690   -0.9400 c3        1 MOL      0.216694
    165 C57        -8.0810   -0.7760   -1.8410 c         1 MOL      0.439563
    166 O25        -7.8670   -1.9730   -1.6010 o         1 MOL     -0.686468
    167 O26        -8.6530   -0.3820   -2.9040 o         1 MOL     -0.686468
    168 H71        -8.4420    4.0450   -1.3370 hn        1 MOL      0.268364
    169 H72        -6.3480    2.6100   -0.3180 h1        1 MOL      0.030146
    170 H73        -7.7910    1.9220   -2.2190 hc        1 MOL     -0.024431
    171 H74        -9.1060    1.7090   -1.0160 hc        1 MOL     -0.024431
    172 H75        -7.6570   -0.0610    0.0900 hc        1 MOL     -0.096877
    173 H76        -6.4350    0.2420   -1.0250 hc        1 MOL     -0.096877
    174 N15        -7.2000    1.6160    2.0600 n         1 MOL     -0.180149
    175 C58        -7.6270    1.1110    3.4200 c3        1 MOL     -0.323204
    176 H77        -8.3460    0.3010    3.2970 h1        1 MOL      0.120071
    177 H78        -6.7560    0.7430    3.9620 h1        1 MOL      0.120071
    178 H79        -8.0890    1.9220    3.9810 h1        1 MOL      0.120071
    179 H80        -6.2510    1.3600    1.8150 hn        1 MOL      0.238647
    180 Ca1        -6.3030   -3.8540   -1.8280 Ca        1 MOL      1.733896
    181 O27        -8.2910   -3.9730   -3.8210 oh        1 MOL     -0.837956
    182 O28        -4.8930   -2.2550   -0.1440 oh        1 MOL     -0.837956
    183 H81        -8.2690   -3.2160   -4.4020 ho        1 MOL      0.409461
    184 H82        -4.0010   -2.5320    0.0820 ho        1 MOL      0.409461
    185 H83        -9.1460   -3.9220   -3.3930 ho        1 MOL      0.409461
    186 H84        -4.9300   -1.3400    0.1240 ho        1 MOL      0.409461
    187 O29        -5.5390   -4.4310   -4.3590 oh        1 MOL     -0.837956
    188 H85        -5.0110   -3.9420   -4.9750 ho        1 MOL      0.409461
    189 H86        -5.5170   -5.3350   -4.6780 ho        1 MOL      0.409461
    190 O30        -9.0650   -4.1410   -0.3240 oh        1 MOL     -0.837956
    191 H87        -9.4670   -3.8080   -1.1300 ho        1 MOL      0.409461
    192 H88        -9.8020   -4.3010    0.2670 ho        1 MOL      0.409461
    193 O31        -7.1210   -6.4490   -1.6360 oh        1 MOL     -0.837956
    194 H89        -6.6960   -7.1880   -2.0630 ho        1 MOL      0.409461
    195 H90        -7.8120   -6.8420   -1.1090 ho        1 MOL      0.409461
@<TRIPOS>BOND
     1    1    2 1   
     2    1    4 1   
     3    1    5 1   
     4    1    6 1   
     5    2    3 2   
     6    2    7 1   
     7    7    8 1   
     8    7   15 1   
     9    8    9 1   
    10    8   11 1   
    11    8   16 1   
    12    9   10 2   
    13    9   19 1   
    14   11   12 1   
    15   11   17 1   
    16   11   18 1   
    17   12   13 1   
    18   12   14 1   
    19   19   20 1   
    20   19   27 1   
    21   20   21 1   
    22   20   23 1   
    23   20   28 1   
    24   21   22 2   
    25   21   38 1   
    26   23   24 1   
    27   23   25 1   
    28   23   29 1   
    29   24   26 1   
    30   24   30 1   
    31   24   31 1   
    32   25   32 1   
    33   25   33 1   
    34   25   34 1   
    35   26   35 1   
    36   26   36 1   
    37   26   37 1   
    38   38   39 1   
    39   38   46 1   
    40   39   40 1   
    41   39   42 1   
    42   39   47 1   
    43   40   41 2   
    44   40   50 1   
    45   42   43 1   
    46   42   48 1   
    47   42   49 1   
    48   43   44 1   
    49   43   45 1   
    50   50   51 1   
    51   50   54 1   
    52   51   52 1   
    53   51   55 1   
    54   51   56 1   
    55   52   53 2   
    56   52   57 1   
    57   57   58 1   
    58   57   65 1   
    59   58   59 1   
    60   58   61 1   
    61   58   66 1   
    62   59   60 2   
    63   59   69 1   
    64   61   62 1   
    65   61   67 1   
    66   61   68 1   
    67   62   63 1   
    68   62   64 1   
    69   69   70 1   
    70   69   73 1   
    71   70   71 1   
    72   70   74 1   
    73   70   75 1   
    74   71   72 2   
    75   71   76 1   
    76   76   77 1   
    77   76   85 1   
    78   77   78 1   
    79   77   80 1   
    80   77   86 1   
    81   78   79 2   
    82   78   93 1   
    83   80   81 1   
    84   80   87 1   
    85   80   88 1   
    86   81   82 1   
    87   81   89 1   
    88   81   90 1   
    89   82   83 1   
    90   82   84 2   
    91   83   91 1   
    92   83   92 1   
    93   93   94 1   
    94   93  100 1   
    95   94   95 1   
    96   94   97 1   
    97   94  101 1   
    98   95   96 2   
    99   95  109 1   
   100   97   98 1   
   101   97   99 1   
   102   97  102 1   
   103   98  103 1   
   104   98  104 1   
   105   98  105 1   
   106   99  106 1   
   107   99  107 1   
   108   99  108 1   
   109  109  110 1   
   110  109  117 1   
   111  110  111 1   
   112  110  113 1   
   113  110  118 1   
   114  111  112 2   
   115  111  123 1   
   116  113  114 1   
   117  113  119 1   
   118  113  120 1   
   119  114  115 1   
   120  114  116 2   
   121  115  121 1   
   122  115  122 1   
   123  123  124 1   
   124  123  135 1   
   125  124  125 1   
   126  124  127 1   
   127  124  136 1   
   128  125  126 2   
   129  125  144 1   
   130  127  128 1   
   131  127  137 1   
   132  127  138 1   
   133  128  129 ar  
   134  128  130 ar  
   135  129  131 ar  
   136  129  139 1   
   137  130  132 ar  
   138  130  140 1   
   139  131  133 ar  
   140  131  141 1   
   141  132  133 ar  
   142  132  142 1   
   143  133  134 1   
   144  134  143 1   
   145  144  145 1   
   146  144  153 1   
   147  145  146 1   
   148  145  148 1   
   149  145  154 1   
   150  146  147 2   
   151  146  159 1   
   152  148  149 1   
   153  148  155 1   
   154  148  156 1   
   155  149  150 1   
   156  149  157 1   
   157  149  158 1   
   158  150  151 1   
   159  150  152 1   
   160  159  160 1   
   161  159  168 1   
   162  160  161 1   
   163  160  163 1   
   164  160  169 1   
   165  161  162 2   
   166  161  174 1   
   167  163  164 1   
   168  163  170 1   
   169  163  171 1   
   170  164  165 1   
   171  164  172 1   
   172  164  173 1   
   173  165  166 1   
   174  165  167 1   
   175  174  175 1   
   176  174  179 1   
   177  175  176 1   
   178  175  177 1   
   179  175  178 1   
   180  181  183 1   
   181  181  185 1   
   182  182  184 1   
   183  182  186 1   
   184  187  188 1   
   185  187  189 1   
   186  190  191 1   
   187  190  192 1   
   188  193  194 1   
   189  193  195 1   
@<TRIPOS>SUBSTRUCTURE
     1 MOL         1 TEMP              0 ****  ****    0 ROOT
