@<TRIPOS>MOLECULE
MOL
  198   191     1     0     0
SMALL
resp


@<TRIPOS>ATOM
      1 C1          4.6210    5.4600   -0.4900 c3        1 MOL     -0.398964
      2 C2          5.0290    4.0180   -0.8270 c         1 MOL      0.689675
      3 O1          4.1430    3.1000   -0.9070 o         1 MOL     -0.607268
      4 H1          4.1500    5.4840    0.4920 hc        1 MOL      0.100175
      5 H2          5.5060    6.0960   -0.4830 hc        1 MOL      0.100175
      6 H3          3.9180    5.8240   -1.2390 hc        1 MOL      0.100175
      7 N1          6.2970    3.8490   -1.1760 n         1 MOL     -0.392843
      8 C3          6.8500    2.7830   -1.9780 c3        1 MOL     -0.120273
      9 C4          6.8390    1.4210   -1.3370 c         1 MOL      0.459806
     10 O2          7.2320    1.2600   -0.1760 o         1 MOL     -0.507747
     11 C5          8.3300    3.0820   -2.4270 c3        1 MOL     -0.000702
     12 C6          9.3390    3.4240   -1.3570 c         1 MOL      0.603060
     13 O3         10.4650    3.7710   -1.7280 o         1 MOL     -0.644589
     14 O4          8.9860    3.4820   -0.1980 o         1 MOL     -0.644589
     15 H4          6.9110    4.5930   -0.8810 hn        1 MOL      0.270712
     16 H5          6.3130    2.6890   -2.9180 h1        1 MOL      0.070611
     17 H6          8.3050    3.8460   -3.2050 hc        1 MOL      0.023360
     18 H7          8.5930    2.1370   -2.9100 hc        1 MOL      0.023360
     19 N2          6.5930    0.3930   -2.2040 n         1 MOL     -0.318252
     20 C7          6.6340   -0.9860   -1.7120 c3        1 MOL     -0.059150
     21 C8          8.1100   -1.4450   -1.5140 c         1 MOL      0.741868
     22 O5          8.6930   -1.9440   -2.4990 o         1 MOL     -0.607311
     23 C9          5.8200   -1.9040   -2.6730 c3        1 MOL      0.003679
     24 C10         5.5920   -3.4470   -2.2330 c3        1 MOL     -0.106000
     25 C11         4.6230   -4.0870   -3.2960 c3        1 MOL     -0.131059
     26 C12         3.2710   -3.3260   -3.5670 c3        1 MOL      0.258116
     27 N3          2.4740   -3.9890   -4.6500 n4        1 MOL     -0.441245
     28 H8          6.2000    0.6010   -3.1140 hn        1 MOL      0.243712
     29 H9          6.2550   -1.0500   -0.6910 h1        1 MOL      0.046618
     30 H10         6.3320   -1.9030   -3.6410 hc        1 MOL      0.012789
     31 H11         4.8880   -1.4200   -2.9460 hc        1 MOL      0.012789
     32 H12         5.1330   -3.4160   -1.2490 hc        1 MOL      0.101472
     33 H13         6.5190   -4.0200   -2.2880 hc        1 MOL      0.101472
     34 H14         4.3700   -5.0910   -2.9570 hc        1 MOL      0.057526
     35 H15         5.2080   -4.2450   -4.2010 hc        1 MOL      0.057526
     36 H16         3.4400   -2.2900   -3.8840 hx        1 MOL      0.004237
     37 H17         2.6620   -3.1480   -2.6810 hx        1 MOL      0.004237
     38 H18         1.6390   -3.4680   -4.8940 hn        1 MOL      0.314907
     39 H19         2.9550   -4.1190   -5.5190 hn        1 MOL      0.314907
     40 H20         2.0660   -4.8350   -4.2760 hn        1 MOL      0.314907
     41 N4          8.6600   -1.5430   -0.2570 n         1 MOL     -0.605609
     42 C13         9.8830   -2.2290   -0.0590 c3        1 MOL      0.217566
     43 C14         9.8950   -2.9500    1.2960 c         1 MOL      0.423497
     44 O6         10.7230   -2.7460    2.1910 o         1 MOL     -0.508830
     45 C15        11.0970   -1.2810   -0.2100 c3        1 MOL     -0.261519
     46 C16        11.1020   -0.0020    0.5710 c         1 MOL      0.731132
     47 O7         10.0850    0.3790    1.1740 o         1 MOL     -0.651945
     48 O8         12.0160    0.8610    0.4000 o         1 MOL     -0.651945
     49 H21         8.2800   -0.9790    0.4880 hn        1 MOL      0.292929
     50 H22        10.0250   -3.0590   -0.7550 h1        1 MOL      0.048972
     51 H23        11.2970   -1.0680   -1.2570 hc        1 MOL      0.065833
     52 H24        12.0110   -1.7630    0.1220 hc        1 MOL      0.065833
     53 N5          8.9780   -3.8390    1.5240 n         1 MOL     -0.342977
     54 C17         8.0450   -4.5040    0.6710 c3        1 MOL     -0.027920
     55 C18         6.6030   -4.4940    1.0410 c         1 MOL      0.484605
     56 O9          5.8170   -5.2350    0.4260 o         1 MOL     -0.613550
     57 H25         8.9890   -4.1790    2.4760 hn        1 MOL      0.263528
     58 H26         8.3420   -5.5560    0.6100 h1        1 MOL      0.062785
     59 H27         8.0970   -4.1680   -0.3640 h1        1 MOL      0.062785
     60 N6          6.2450   -3.7000    2.0320 n         1 MOL     -0.270464
     61 C19         4.8380   -3.5200    2.5510 c3        1 MOL      0.035983
     62 C20         4.1550   -2.2650    1.8600 c         1 MOL      0.373573
     63 O10         4.8830   -1.3370    1.4570 o         1 MOL     -0.472297
     64 C21         4.9490   -3.2850    4.0470 c3        1 MOL     -0.176991
     65 C22         5.7590   -2.0590    4.5200 c         1 MOL      0.730188
     66 O11         7.0220   -1.9640    4.4450 o         1 MOL     -0.691276
     67 O12         5.1080   -1.1970    5.1470 o         1 MOL     -0.691276
     68 H28         7.0010   -3.1670    2.4520 hn        1 MOL      0.192589
     69 H29         4.2580   -4.4230    2.3830 h1        1 MOL      0.079847
     70 H30         5.5300   -4.1320    4.4020 hc        1 MOL      0.044075
     71 H31         3.9370   -3.3760    4.4650 hc        1 MOL      0.044075
     72 N7          2.8060   -2.2940    1.7940 n         1 MOL     -0.406742
     73 C23         1.9890   -1.1560    1.5140 c3        1 MOL      0.031842
     74 C24         1.4570   -0.9590    0.0780 c         1 MOL      0.587718
     75 O13         1.3030   -1.8340   -0.7250 o         1 MOL     -0.564497
     76 H32         2.3510   -3.1710    1.9890 hn        1 MOL      0.297410
     77 H33         2.5200   -0.2600    1.8340 h1        1 MOL      0.085224
     78 H34         1.1600   -1.0930    2.2090 h1        1 MOL      0.085224
     79 N8          0.8560    0.2220   -0.0970 n         1 MOL     -0.541082
     80 C25         0.2370    0.6870   -1.3640 c3        1 MOL      0.471560
     81 C26        -0.9930    1.6160   -1.1860 c         1 MOL      0.192878
     82 O14        -1.2210    2.2100   -0.1380 o         1 MOL     -0.447604
     83 C27         1.2200    1.3880   -2.3250 c3        1 MOL      0.193388
     84 C28         2.6170    0.8430   -2.4650 c3        1 MOL     -0.423100
     85 O15         0.6040    1.1940   -3.5750 oh        1 MOL     -0.606396
     86 H35         0.8720    0.9030    0.6530 hn        1 MOL      0.248675
     87 H36        -0.1490   -0.1620   -1.9240 h1        1 MOL     -0.061545
     88 H37         1.2600    2.4330   -2.0440 h1        1 MOL      0.063605
     89 H38         0.9500    0.4640   -4.0920 ho        1 MOL      0.374671
     90 H39         3.1320    1.3580   -3.2800 hc        1 MOL      0.123931
     91 H40         3.0650    1.0420   -1.4810 hc        1 MOL      0.123931
     92 H41         2.5600   -0.2310   -2.6200 hc        1 MOL      0.123931
     93 N9         -1.8060    1.7600   -2.2820 n         1 MOL     -0.075198
     94 C29        -2.9740    2.6160   -2.3590 c3        1 MOL     -0.002718
     95 C30        -4.1480    1.8730   -1.6940 c         1 MOL      0.416664
     96 O16        -4.9010    2.3960   -0.8820 o         1 MOL     -0.508009
     97 C31        -3.3730    2.9370   -3.8370 c3        1 MOL      0.338783
     98 C32        -2.2050    3.4030   -4.7340 c3        1 MOL     -0.149875
     99 C33        -4.4400    3.9420   -4.0250 c3        1 MOL     -0.511948
    100 C34        -1.2710    4.4530   -4.0130 c3        1 MOL     -0.228479
    101 H42        -1.4760    1.3090   -3.1210 hn        1 MOL      0.159825
    102 H43        -2.8380    3.5070   -1.7510 h1        1 MOL      0.071727
    103 H44        -3.6400    1.9940   -4.3170 hc        1 MOL     -0.057941
    104 H45        -2.6100    3.8370   -5.6490 hc        1 MOL      0.039960
    105 H46        -1.6190    2.4980   -4.8720 hc        1 MOL      0.039960
    106 H47        -5.2090    3.8710   -3.2570 hc        1 MOL      0.133087
    107 H48        -4.0590    4.9680   -4.0140 hc        1 MOL      0.133087
    108 H49        -4.8630    3.6610   -4.9870 hc        1 MOL      0.133087
    109 H50        -0.6090    4.0470   -3.2460 hc        1 MOL      0.071409
    110 H51        -0.6610    4.9060   -4.7960 hc        1 MOL      0.071409
    111 H52        -1.9040    5.1790   -3.4960 hc        1 MOL      0.071409
    112 N10        -4.2720    0.5680   -1.9760 n         1 MOL     -0.418908
    113 C35        -5.1970   -0.3000   -1.1460 c3        1 MOL      0.137918
    114 C36        -5.9420   -1.3840   -1.8950 c         1 MOL      0.451721
    115 O17        -5.4790   -1.9370   -2.8970 o         1 MOL     -0.537973
    116 C37        -4.4840   -0.7380    0.1700 c3        1 MOL      0.326527
    117 C38        -3.9380   -2.1490    0.0100 c3        1 MOL     -0.323478
    118 O18        -3.5260    0.2070    0.5510 oh        1 MOL     -0.566846
    119 H53        -3.6120    0.1390   -2.6160 hn        1 MOL      0.216099
    120 H54        -5.9830    0.3840   -0.7940 h1        1 MOL      0.003180
    121 H55        -5.2580   -0.8430    0.9290 h1        1 MOL     -0.011876
    122 H56        -4.0370    0.9350    0.9060 ho        1 MOL      0.396854
    123 H57        -3.2790   -2.0440   -0.8580 hc        1 MOL      0.087006
    124 H58        -3.2730   -2.4290    0.8250 hc        1 MOL      0.087006
    125 H59        -4.7640   -2.8490   -0.0850 hc        1 MOL      0.087006
    126 N11        -7.1280   -1.7270   -1.4090 n         1 MOL     -0.288919
    127 C39        -8.0710   -2.6740   -1.9880 c3        1 MOL     -0.055529
    128 C40        -9.4660   -1.9660   -1.8320 c         1 MOL      0.617354
    129 O19        -9.9810   -1.4010   -2.7640 o         1 MOL     -0.538482
    130 C41        -7.9570   -4.1070   -1.4240 c3        1 MOL      0.297843
    131 C42        -8.9540   -5.2120   -1.9290 c3        1 MOL     -0.480408
    132 O20        -7.9340   -4.1780    0.0040 oh        1 MOL     -0.618450
    133 H60        -7.4280   -1.2480   -0.5700 hn        1 MOL      0.221644
    134 H61        -7.8390   -2.7650   -3.0490 h1        1 MOL      0.101466
    135 H62        -6.9810   -4.4880   -1.7470 h1        1 MOL      0.038403
    136 H63        -8.0000   -5.1000    0.2630 ho        1 MOL      0.407444
    137 H64        -8.6870   -5.4600   -2.9480 hc        1 MOL      0.130121
    138 H65        -8.7360   -6.1070   -1.3390 hc        1 MOL      0.130121
    139 H66        -9.9710   -4.8190   -1.9570 hc        1 MOL      0.130121
    140 N12        -9.9710   -1.9260   -0.5630 n         1 MOL     -0.528664
    141 C43       -11.2660   -1.2820   -0.2260 c3        1 MOL      0.074026
    142 C44       -10.9730   -0.4020    0.9500 c         1 MOL      0.619668
    143 O21       -10.2280   -0.6800    1.8850 o         1 MOL     -0.503491
    144 C45       -12.2380   -2.3740    0.1510 c3        1 MOL      0.058725
    145 C46       -13.6560   -1.8240    0.4490 c3        1 MOL     -0.257798
    146 C47       -14.8140   -2.9170    0.6920 c3        1 MOL     -0.061360
    147 C48       -14.4140   -3.6890    1.9600 c3        1 MOL      0.026807
    148 N13       -15.5180   -4.5320    2.5220 n4        1 MOL     -0.265607
    149 H67        -9.6130   -2.5590    0.1430 hn        1 MOL      0.247088
    150 H68       -11.6400   -0.6600   -1.0390 h1        1 MOL      0.091639
    151 H69       -11.8100   -2.8750    1.0280 hc        1 MOL      0.009659
    152 H70       -12.2950   -3.0770   -0.6810 hc        1 MOL      0.009659
    153 H71       -13.9120   -1.2170   -0.4110 hc        1 MOL      0.106268
    154 H72       -13.4870   -1.2440    1.3640 hc        1 MOL      0.106268
    155 H73       -14.9970   -3.5660   -0.1650 hc        1 MOL      0.063193
    156 H74       -15.8070   -2.5280    0.8930 hc        1 MOL      0.063193
    157 H75       -14.1050   -2.9910    2.7430 hx        1 MOL      0.080604
    158 H76       -13.5000   -4.2510    1.7290 hx        1 MOL      0.080604
    159 H77       -15.5420   -5.3700    1.9540 hn        1 MOL      0.244637
    160 H78       -15.1390   -4.7790    3.4240 hn        1 MOL      0.244637
    161 H79       -16.4330   -4.0940    2.5110 hn        1 MOL      0.244637
    162 N14       -11.6160    0.7410    0.9480 n         1 MOL     -0.577257
    163 C49       -11.4570    1.7100    1.9830 c3        1 MOL      0.088854
    164 C50       -10.0160    2.2450    2.1320 c         1 MOL      0.327660
    165 O22        -9.4270    2.1100    3.2160 o         1 MOL     -0.506490
    166 C51       -12.5600    2.8000    1.9160 c3        1 MOL      0.230894
    167 C52       -12.6790    3.6810    3.1280 c3        1 MOL     -0.223930
    168 C53       -13.7860    4.7180    3.0680 c         1 MOL      0.717470
    169 O23       -14.2870    5.1290    4.1560 o         1 MOL     -0.655573
    170 O24       -14.3160    5.0150    1.9850 o         1 MOL     -0.655573
    171 H80       -12.0620    1.0320    0.0880 hn        1 MOL      0.272619
    172 H81       -11.5840    1.1820    2.9260 h1        1 MOL      0.068503
    173 H82       -13.5480    2.3580    1.7590 hc        1 MOL     -0.052749
    174 H83       -12.3560    3.3830    1.0220 hc        1 MOL     -0.052749
    175 H84       -11.7600    4.2710    3.1980 hc        1 MOL      0.040676
    176 H85       -12.8390    3.0830    4.0270 hc        1 MOL      0.040676
    177 N15        -9.3710    2.8170    1.0950 n         1 MOL     -0.237726
    178 C54       -10.0190    3.3240   -0.1100 c3        1 MOL     -0.162499
    179 H86       -10.3280    4.3570    0.0520 h1        1 MOL      0.086888
    180 H87        -9.3200    3.2810   -0.9440 h1        1 MOL      0.086888
    181 H88       -10.8940    2.7150   -0.3360 h1        1 MOL      0.086888
    182 H89        -8.4040    3.0700    1.2450 hn        1 MOL      0.272144
    183 Ca1         8.3650    2.1720    1.8730 Ca        1 MOL      1.736675
    184 O25         7.1530   -0.2660    2.3100 oh        1 MOL     -0.874186
    185 H90         6.3450   -0.6800    2.0260 ho        1 MOL      0.425294
    186 H91         7.2780   -0.5710    3.2090 ho        1 MOL      0.425294
    187 O26         6.0970    3.5660    2.3290 oh        1 MOL     -0.874186
    188 H92         6.0200    4.4150    2.7550 ho        1 MOL      0.425294
    189 H93         5.2060    3.2070    2.3430 ho        1 MOL      0.425294
    190 O27         8.9390    4.7350    2.6580 oh        1 MOL     -0.874186
    191 H94         8.2050    5.3560    2.6100 ho        1 MOL      0.425294
    192 H95         9.4890    5.0720    3.3650 ho        1 MOL      0.425294
    193 O28        10.6510    2.1400    3.3490 oh        1 MOL     -0.874186
    194 H96        10.6070    2.8300    4.0100 ho        1 MOL      0.425294
    195 H97        11.5550    1.8280    3.3900 ho        1 MOL      0.425294
    196 O29         7.3220    1.7640    4.3270 oh        1 MOL     -0.874186
    197 H98         6.6420    2.3240    4.7000 ho        1 MOL      0.425294
    198 H99         7.4200    1.0470    4.9490 ho        1 MOL      0.425294
@<TRIPOS>BOND
     1    1    2 1   
     2    1    4 1   
     3    1    5 1   
     4    1    6 1   
     5    2    3 2   
     6    2    7 1   
     7    7    8 1   
     8    7   15 1   
     9    8    9 1   
    10    8   11 1   
    11    8   16 1   
    12    9   10 2   
    13    9   19 1   
    14   11   12 1   
    15   11   17 1   
    16   11   18 1   
    17   12   13 1   
    18   12   14 1   
    19   19   20 1   
    20   19   28 1   
    21   20   21 1   
    22   20   23 1   
    23   20   29 1   
    24   21   22 2   
    25   21   41 1   
    26   23   24 1   
    27   23   30 1   
    28   23   31 1   
    29   24   25 1   
    30   24   32 1   
    31   24   33 1   
    32   25   26 1   
    33   25   34 1   
    34   25   35 1   
    35   26   27 1   
    36   26   36 1   
    37   26   37 1   
    38   27   38 1   
    39   27   39 1   
    40   27   40 1   
    41   41   42 1   
    42   41   49 1   
    43   42   43 1   
    44   42   45 1   
    45   42   50 1   
    46   43   44 2   
    47   43   53 1   
    48   45   46 1   
    49   45   51 1   
    50   45   52 1   
    51   46   47 1   
    52   46   48 1   
    53   53   54 1   
    54   53   57 1   
    55   54   55 1   
    56   54   58 1   
    57   54   59 1   
    58   55   56 2   
    59   55   60 1   
    60   60   61 1   
    61   60   68 1   
    62   61   62 1   
    63   61   64 1   
    64   61   69 1   
    65   62   63 2   
    66   62   72 1   
    67   64   65 1   
    68   64   70 1   
    69   64   71 1   
    70   65   66 1   
    71   65   67 1   
    72   72   73 1   
    73   72   76 1   
    74   73   74 1   
    75   73   77 1   
    76   73   78 1   
    77   74   75 2   
    78   74   79 1   
    79   79   80 1   
    80   79   86 1   
    81   80   81 1   
    82   80   83 1   
    83   80   87 1   
    84   81   82 2   
    85   81   93 1   
    86   83   84 1   
    87   83   85 1   
    88   83   88 1   
    89   84   90 1   
    90   84   91 1   
    91   84   92 1   
    92   85   89 1   
    93   93   94 1   
    94   93  101 1   
    95   94   95 1   
    96   94   97 1   
    97   94  102 1   
    98   95   96 2   
    99   95  112 1   
   100   97   98 1   
   101   97   99 1   
   102   97  103 1   
   103   98  100 1   
   104   98  104 1   
   105   98  105 1   
   106   99  106 1   
   107   99  107 1   
   108   99  108 1   
   109  100  109 1   
   110  100  110 1   
   111  100  111 1   
   112  112  113 1   
   113  112  119 1   
   114  113  114 1   
   115  113  116 1   
   116  113  120 1   
   117  114  115 2   
   118  114  126 1   
   119  116  117 1   
   120  116  118 1   
   121  116  121 1   
   122  117  123 1   
   123  117  124 1   
   124  117  125 1   
   125  118  122 1   
   126  126  127 1   
   127  126  133 1   
   128  127  128 1   
   129  127  130 1   
   130  127  134 1   
   131  128  129 2   
   132  128  140 1   
   133  130  131 1   
   134  130  132 1   
   135  130  135 1   
   136  131  137 1   
   137  131  138 1   
   138  131  139 1   
   139  132  136 1   
   140  140  141 1   
   141  140  149 1   
   142  141  142 1   
   143  141  144 1   
   144  141  150 1   
   145  142  143 2   
   146  142  162 1   
   147  144  145 1   
   148  144  151 1   
   149  144  152 1   
   150  145  146 1   
   151  145  153 1   
   152  145  154 1   
   153  146  147 1   
   154  146  155 1   
   155  146  156 1   
   156  147  148 1   
   157  147  157 1   
   158  147  158 1   
   159  148  159 1   
   160  148  160 1   
   161  148  161 1   
   162  162  163 1   
   163  162  171 1   
   164  163  164 1   
   165  163  166 1   
   166  163  172 1   
   167  164  165 2   
   168  164  177 1   
   169  166  167 1   
   170  166  173 1   
   171  166  174 1   
   172  167  168 1   
   173  167  175 1   
   174  167  176 1   
   175  168  169 1   
   176  168  170 1   
   177  177  178 1   
   178  177  182 1   
   179  178  179 1   
   180  178  180 1   
   181  178  181 1   
   182  184  185 1   
   183  184  186 1   
   184  187  188 1   
   185  187  189 1   
   186  190  191 1   
   187  190  192 1   
   188  193  194 1   
   189  193  195 1   
   190  196  197 1   
   191  196  198 1   
@<TRIPOS>SUBSTRUCTURE
     1 MOL         1 TEMP              0 ****  ****    0 ROOT
