@<TRIPOS>MOLECULE
MOL
  192   187     1     0     0
SMALL
resp


@<TRIPOS>ATOM
      1 C1          5.6810    0.6610    6.2750 c3        1 MOL     -0.105553
      2 C2          5.2140    0.7700    4.8080 c         1 MOL      0.749484
      3 O1          4.8070    1.8620    4.3720 o         1 MOL     -0.613643
      4 H1          6.7070    0.2950    6.3020 hc        1 MOL      0.016990
      5 H2          5.6340    1.6440    6.7450 hc        1 MOL      0.016990
      6 H3          5.0340   -0.0310    6.8120 hc        1 MOL      0.016990
      7 N1          5.2420   -0.2660    4.0180 n         1 MOL     -0.609742
      8 C3          4.9770   -0.1140    2.5420 c3        1 MOL      0.165192
      9 C4          3.4740   -0.1380    2.1630 c         1 MOL      0.191068
     10 O2          3.2090   -0.0300    0.9430 o         1 MOL     -0.227211
     11 C5          5.8470   -1.1580    1.6420 c3        1 MOL     -0.132289
     12 C6          6.1070   -2.5770    2.1710 c         1 MOL      0.665438
     13 O3          5.4310   -2.9860    3.1640 o         1 MOL     -0.697157
     14 O4          6.9110   -3.2640    1.5440 o         1 MOL     -0.697157
     15 H4          5.2930   -1.2030    4.3950 hn        1 MOL      0.305893
     16 H5          5.2830    0.8730    2.1870 h1        1 MOL      0.099834
     17 H6          6.7810   -0.6170    1.5040 hc        1 MOL      0.054065
     18 H7          5.5060   -1.2270    0.6090 hc        1 MOL      0.054065
     19 N2          2.5430   -0.1760    3.0770 n         1 MOL     -0.365707
     20 C7          1.1300    0.0540    2.7680 c3        1 MOL      0.040683
     21 C8          0.6710    1.5270    2.4270 c         1 MOL      0.573764
     22 O5          0.9720    2.4490    3.1110 o         1 MOL     -0.517771
     23 C9          0.3400   -0.5530    3.9550 c3        1 MOL     -0.263042
     24 C10         0.5680   -2.0360    4.1290 c3        1 MOL      0.173293
     25 C11        -0.5740   -2.8600    4.5610 c3        1 MOL     -0.136673
     26 C12        -0.0640   -4.1690    5.1910 c3        1 MOL      0.064961
     27 N3          0.4760   -5.1620    4.1910 n4        1 MOL     -0.374633
     28 H8          2.8560   -0.1880    4.0340 hn        1 MOL      0.291602
     29 H9          0.8810   -0.5160    1.8740 h1        1 MOL      0.059523
     30 H10        -0.7060   -0.3110    3.7340 hc        1 MOL      0.088347
     31 H11         0.6390   -0.0450    4.8690 hc        1 MOL      0.088347
     32 H12         1.3950   -2.2780    4.7990 hc        1 MOL     -0.004588
     33 H13         0.8920   -2.4110    3.1640 hc        1 MOL     -0.004588
     34 H14        -1.3120   -2.9750    3.7790 hc        1 MOL      0.071657
     35 H15        -1.1000   -2.3660    5.3780 hc        1 MOL      0.071657
     36 H16        -0.8720   -4.5700    5.8140 hx        1 MOL      0.080654
     37 H17         0.7140   -4.0080    5.9370 hx        1 MOL      0.080654
     38 H18        -0.2120   -5.4090    3.4930 hn        1 MOL      0.328668
     39 H19         1.3530   -4.9360    3.7560 hn        1 MOL      0.328668
     40 H20         0.5420   -6.0260    4.7090 hn        1 MOL      0.328668
     41 N4         -0.1750    1.8080    1.4640 n         1 MOL     -0.317282
     42 C13        -1.1320    0.9660    0.6700 c3        1 MOL     -0.104432
     43 C14        -1.7540   -0.3620    1.2160 c         1 MOL      0.467357
     44 O6         -1.2900   -1.4380    0.9160 o         1 MOL     -0.547570
     45 C15        -0.4260    0.6300   -0.7100 c3        1 MOL     -0.442530
     46 C16         0.0230    1.9200   -1.5160 c         1 MOL      0.798559
     47 O7          0.4480    1.7690   -2.7210 o         1 MOL     -0.712259
     48 O8         -0.1740    3.0290   -1.0670 o         1 MOL     -0.712259
     49 H21        -0.1310    2.7940    1.2550 hn        1 MOL      0.154504
     50 H22        -1.9770    1.6120    0.4560 h1        1 MOL      0.095808
     51 H23        -1.1010   -0.0180   -1.2750 hc        1 MOL      0.150621
     52 H24         0.5190    0.0950   -0.6450 hc        1 MOL      0.150621
     53 N5         -2.9650   -0.3730    1.8350 n         1 MOL     -0.100457
     54 C17        -3.7530    0.7800    2.1400 c3        1 MOL     -0.093173
     55 C18        -5.0810    0.4730    2.8480 c         1 MOL      0.437110
     56 O9         -5.3400   -0.6790    3.2310 o         1 MOL     -0.524334
     57 H25        -3.3190   -1.2880    2.0980 hn        1 MOL      0.142284
     58 H26        -3.9000    1.2870    1.1900 h1        1 MOL      0.067707
     59 H27        -3.1120    1.4680    2.6990 h1        1 MOL      0.067707
     60 N6         -5.8460    1.4580    3.2090 n         1 MOL     -0.347178
     61 C19        -5.8800    2.7960    2.5440 c3        1 MOL     -0.037918
     62 C20        -6.6720    2.7010    1.2250 c         1 MOL      0.543538
     63 O10        -7.7550    2.1500    1.1940 o         1 MOL     -0.440862
     64 C21        -6.5740    3.7090    3.5350 c3        1 MOL     -0.105471
     65 C22        -7.9150    3.3040    3.9920 c         1 MOL      0.753934
     66 O11        -8.7000    4.1740    4.3760 o         1 MOL     -0.665629
     67 O12        -8.2260    2.0870    4.1730 o         1 MOL     -0.665629
     68 H28        -6.6630    1.2180    3.7510 hn        1 MOL      0.279173
     69 H29        -4.8750    3.1900    2.3770 h1        1 MOL      0.032631
     70 H30        -6.6390    4.7110    3.1180 hc        1 MOL      0.014152
     71 H31        -5.9140    3.7420    4.4010 hc        1 MOL      0.014152
     72 N7         -6.2270    3.4200    0.1580 n         1 MOL     -0.361196
     73 C23        -6.8460    3.3920   -1.1270 c3        1 MOL     -0.122717
     74 C24        -6.9050    1.9520   -1.7670 c         1 MOL      0.533053
     75 O13        -7.9110    1.5830   -2.3200 o         1 MOL     -0.520469
     76 H32        -5.2820    3.7680    0.1800 hn        1 MOL      0.197559
     77 H33        -6.3880    4.0760   -1.8460 h1        1 MOL      0.098805
     78 H34        -7.8620    3.7820   -1.0970 h1        1 MOL      0.098805
     79 N8         -5.7790    1.2240   -1.8300 n         1 MOL     -0.407200
     80 C25        -5.5900   -0.0940   -2.3770 c3        1 MOL     -0.081487
     81 C26        -4.7770   -1.0410   -1.4920 c         1 MOL      0.486636
     82 O14        -3.5980   -0.7670   -1.2720 o         1 MOL     -0.501892
     83 C27        -5.0150   -0.1660   -3.7810 c3        1 MOL      0.474297
     84 C28        -5.7320    0.8430   -4.7590 c3        1 MOL     -0.179624
     85 O15        -5.1860   -1.4740   -4.2790 oh        1 MOL     -0.691009
     86 H35        -4.9840    1.7710   -1.5630 hn        1 MOL      0.255411
     87 H36        -6.5600   -0.5590   -2.5120 h1        1 MOL      0.143819
     88 H37        -3.9380   -0.0230   -3.7280 h1        1 MOL     -0.052189
     89 H38        -4.3380   -1.9150   -4.2480 ho        1 MOL      0.443370
     90 H39        -5.1840    0.7300   -5.7000 hc        1 MOL      0.042685
     91 H40        -6.7890    0.5970   -4.8720 hc        1 MOL      0.042685
     92 H41        -5.6360    1.8650   -4.3920 hc        1 MOL      0.042685
     93 N9         -5.1870   -2.1810   -1.0540 n         1 MOL     -0.402200
     94 C29        -4.4330   -3.2090   -0.2460 c3        1 MOL     -0.016585
     95 C30        -3.1520   -3.8620   -0.8660 c         1 MOL      0.336836
     96 O16        -2.8640   -4.9840   -0.4520 o         1 MOL     -0.536707
     97 C31        -5.4210   -4.2080    0.3810 c3        1 MOL      0.068889
     98 C32        -6.0900   -5.1100   -0.6990 c3        1 MOL      0.033951
     99 C33        -6.4460   -3.5650    1.2520 c3        1 MOL     -0.151704
    100 C34        -6.7910   -6.2980   -0.1550 c3        1 MOL     -0.221260
    101 H42        -6.0870   -2.5360   -1.3300 hn        1 MOL      0.256179
    102 H43        -4.0000   -2.7690    0.6520 h1        1 MOL      0.166457
    103 H44        -4.8590   -4.8010    1.0900 hc        1 MOL      0.022289
    104 H45        -5.3160   -5.4580   -1.3790 hc        1 MOL      0.018830
    105 H46        -6.7120   -4.5050   -1.3580 hc        1 MOL      0.018830
    106 H47        -7.1780   -3.0460    0.6340 hc        1 MOL      0.047576
    107 H48        -7.0570   -4.1720    1.9190 hc        1 MOL      0.047576
    108 H49        -5.9890   -2.8300    1.9100 hc        1 MOL      0.047576
    109 H50        -7.6120   -5.9980    0.4990 hc        1 MOL      0.056762
    110 H51        -7.3170   -6.9560   -0.8580 hc        1 MOL      0.056762
    111 H52        -6.0610   -6.8710    0.4140 hc        1 MOL      0.056762
    112 N10        -2.4150   -3.2450   -1.7550 n         1 MOL      0.098555
    113 C35        -1.4830   -3.8790   -2.7760 c3        1 MOL     -0.209551
    114 C36        -0.0790   -3.8930   -2.5000 c         1 MOL      0.493028
    115 O17         0.5690   -4.7340   -3.0400 o         1 MOL     -0.558897
    116 C37        -1.7830   -3.2810   -4.1950 c3        1 MOL      0.230484
    117 C38        -1.3680   -1.8760   -4.4220 c3        1 MOL     -0.215606
    118 O18        -3.1790   -3.2020   -4.5070 oh        1 MOL     -0.595084
    119 H53        -2.7230   -2.3160   -2.0090 hn        1 MOL     -0.088228
    120 H54        -1.7520   -4.9330   -2.6800 h1        1 MOL      0.116347
    121 H55        -1.3560   -3.9550   -4.9450 h1        1 MOL      0.062496
    122 H56        -3.4770   -4.1090   -4.4570 ho        1 MOL      0.394048
    123 H57        -0.2960   -1.7550   -4.2760 hc        1 MOL      0.091034
    124 H58        -1.7420   -1.4260   -5.3370 hc        1 MOL      0.091034
    125 H59        -1.8320   -1.2680   -3.6280 hc        1 MOL      0.091034
    126 N11         0.3650   -2.9640   -1.7090 n         1 MOL     -0.013336
    127 C39         1.7430   -2.6800   -1.2500 c3        1 MOL     -0.005295
    128 C40         2.6740   -2.0100   -2.2920 c         1 MOL      0.468834
    129 O19         2.5660   -2.1980   -3.4780 o         1 MOL     -0.513126
    130 C41         2.3760   -3.9870   -0.7800 c3        1 MOL      0.385497
    131 C42         1.6510   -4.7970    0.2700 c3        1 MOL     -0.352290
    132 O20         3.5960   -3.6970   -0.1410 oh        1 MOL     -0.599052
    133 H60        -0.3530   -2.4260   -1.2500 hn        1 MOL     -0.010241
    134 H61         1.7000   -2.0960   -0.3260 h1        1 MOL      0.128104
    135 H62         2.5600   -4.6060   -1.6540 h1        1 MOL     -0.004999
    136 H63         4.1460   -4.4820   -0.0400 ho        1 MOL      0.355183
    137 H64         1.5020   -4.1780    1.1550 hc        1 MOL      0.072349
    138 H65         0.6920   -5.1140   -0.1420 hc        1 MOL      0.072349
    139 H66         2.2050   -5.6970    0.5540 hc        1 MOL      0.072349
    140 N12         3.6170   -1.2460   -1.8280 n         1 MOL     -0.336923
    141 C43         4.5170   -0.4770   -2.7010 c3        1 MOL      0.010124
    142 C44         4.8850    0.9160   -2.2260 c         1 MOL      0.566907
    143 O21         5.5880    1.5300   -3.0120 o         1 MOL     -0.624980
    144 C45         5.7090   -1.3310   -3.1120 c3        1 MOL     -0.348926
    145 C46         6.5160   -1.7260   -1.8920 c3        1 MOL      0.329565
    146 C47         7.7870   -2.5280   -2.3080 c3        1 MOL     -0.272811
    147 C48         8.4110   -3.3510   -1.1450 c3        1 MOL      0.147598
    148 N13         7.7260   -4.6840   -0.9480 n4        1 MOL     -0.485726
    149 H67         3.6780   -1.1250   -0.8250 hn        1 MOL      0.102346
    150 H68         4.0560   -0.3620   -3.6880 h1        1 MOL      0.120160
    151 H69         6.4140   -0.7080   -3.6570 hc        1 MOL      0.104221
    152 H70         5.4960   -2.2480   -3.6630 hc        1 MOL      0.104221
    153 H71         5.8700   -2.4010   -1.3290 hc        1 MOL     -0.009262
    154 H72         6.6910   -0.8100   -1.3310 hc        1 MOL     -0.009262
    155 H73         8.5440   -1.8450   -2.6930 hc        1 MOL      0.073323
    156 H74         7.4910   -3.3030   -3.0270 hc        1 MOL      0.073323
    157 H75         8.2730   -2.7870   -0.2280 hx        1 MOL      0.055421
    158 H76         9.4620   -3.5560   -1.3590 hx        1 MOL      0.055421
    159 H77         6.7990   -4.4830   -0.6220 hn        1 MOL      0.341562
    160 H78         7.7540   -5.1720   -1.8350 hn        1 MOL      0.341562
    161 H79         8.1660   -5.2300   -0.2210 hn        1 MOL      0.341562
    162 N14         4.4040    1.4090   -1.0980 n         1 MOL     -0.198873
    163 C49         4.6030    2.7720   -0.7150 c3        1 MOL     -0.357242
    164 C50         6.0990    2.9970   -0.3290 c         1 MOL      0.576453
    165 O22         6.5790    2.4130    0.6120 o         1 MOL     -0.552284
    166 C51         3.7460    3.1190    0.4990 c3        1 MOL      0.685325
    167 C52         3.7930    4.6430    0.8820 c3        1 MOL     -0.974361
    168 C53         3.5650    5.4050   -0.4000 c         1 MOL      1.062016
    169 O23         4.6480    5.7370   -1.0140 o         1 MOL     -0.841562
    170 O24         2.4750    6.0030   -0.6470 o         1 MOL     -0.841562
    171 H80         3.8550    0.7920   -0.5120 hn        1 MOL      0.091349
    172 H81         4.2650    3.3930   -1.5450 h1        1 MOL      0.108775
    173 H82         4.0260    2.5800    1.3980 hc        1 MOL     -0.130782
    174 H83         2.6880    2.9770    0.2840 hc        1 MOL     -0.130782
    175 H84         4.7720    4.9020    1.2800 hc        1 MOL      0.264171
    176 H85         3.0520    4.8370    1.6570 hc        1 MOL      0.264171
    177 N15         6.8480    3.8550   -1.0550 n         1 MOL     -0.359800
    178 C54         8.2390    4.1980   -0.6550 c3        1 MOL     -0.008467
    179 H86         8.8270    4.4220   -1.5460 h1        1 MOL      0.046026
    180 H87         8.2250    5.0700   -0.0010 h1        1 MOL      0.046026
    181 H88         8.6850    3.3550   -0.1280 h1        1 MOL      0.046026
    182 H89         6.3500    4.4430   -1.7190 hn        1 MOL      0.388291
    183 Ca1         0.1560    5.4830   -1.3020 Ca        1 MOL      1.643793
    184 O25         0.9530    6.8960   -3.5490 oh        1 MOL     -0.881429
    185 H90         1.9110    6.8780   -3.5770 ho        1 MOL      0.437003
    186 H91         0.7180    7.8100   -3.6900 ho        1 MOL      0.437003
    187 O26        -1.5450    4.7650   -3.5460 oh        1 MOL     -0.881429
    188 H92        -0.8700    4.8190   -4.2190 ho        1 MOL      0.437003
    189 H93        -2.3490    4.5580   -4.0180 ho        1 MOL      0.437003
    190 O27         1.7410    4.0940   -3.2100 oh        1 MOL     -0.881429
    191 H94         2.3960    4.0100   -3.9050 ho        1 MOL      0.437003
    192 H95         1.4520    3.2030   -3.0460 ho        1 MOL      0.437003
@<TRIPOS>BOND
     1    1    2 1   
     2    1    4 1   
     3    1    5 1   
     4    1    6 1   
     5    2    3 2   
     6    2    7 1   
     7    7    8 1   
     8    7   15 1   
     9    8    9 1   
    10    8   11 1   
    11    8   16 1   
    12    9   10 2   
    13    9   19 1   
    14   11   12 1   
    15   11   17 1   
    16   11   18 1   
    17   12   13 1   
    18   12   14 1   
    19   19   20 1   
    20   19   28 1   
    21   20   21 1   
    22   20   23 1   
    23   20   29 1   
    24   21   22 2   
    25   21   41 1   
    26   23   24 1   
    27   23   30 1   
    28   23   31 1   
    29   24   25 1   
    30   24   32 1   
    31   24   33 1   
    32   25   26 1   
    33   25   34 1   
    34   25   35 1   
    35   26   27 1   
    36   26   36 1   
    37   26   37 1   
    38   27   38 1   
    39   27   39 1   
    40   27   40 1   
    41   41   42 1   
    42   41   49 1   
    43   42   43 1   
    44   42   45 1   
    45   42   50 1   
    46   43   44 2   
    47   43   53 1   
    48   45   46 1   
    49   45   51 1   
    50   45   52 1   
    51   46   47 1   
    52   46   48 1   
    53   53   54 1   
    54   53   57 1   
    55   54   55 1   
    56   54   58 1   
    57   54   59 1   
    58   55   56 2   
    59   55   60 1   
    60   60   61 1   
    61   60   68 1   
    62   61   62 1   
    63   61   64 1   
    64   61   69 1   
    65   62   63 2   
    66   62   72 1   
    67   64   65 1   
    68   64   70 1   
    69   64   71 1   
    70   65   66 1   
    71   65   67 1   
    72   72   73 1   
    73   72   76 1   
    74   73   74 1   
    75   73   77 1   
    76   73   78 1   
    77   74   75 2   
    78   74   79 1   
    79   79   80 1   
    80   79   86 1   
    81   80   81 1   
    82   80   83 1   
    83   80   87 1   
    84   81   82 2   
    85   81   93 1   
    86   83   84 1   
    87   83   85 1   
    88   83   88 1   
    89   84   90 1   
    90   84   91 1   
    91   84   92 1   
    92   85   89 1   
    93   93   94 1   
    94   93  101 1   
    95   94   95 1   
    96   94   97 1   
    97   94  102 1   
    98   95   96 2   
    99   95  112 1   
   100   97   98 1   
   101   97   99 1   
   102   97  103 1   
   103   98  100 1   
   104   98  104 1   
   105   98  105 1   
   106   99  106 1   
   107   99  107 1   
   108   99  108 1   
   109  100  109 1   
   110  100  110 1   
   111  100  111 1   
   112  112  113 1   
   113  112  119 1   
   114  113  114 1   
   115  113  116 1   
   116  113  120 1   
   117  114  115 2   
   118  114  126 1   
   119  116  117 1   
   120  116  118 1   
   121  116  121 1   
   122  117  123 1   
   123  117  124 1   
   124  117  125 1   
   125  118  122 1   
   126  126  127 1   
   127  126  133 1   
   128  127  128 1   
   129  127  130 1   
   130  127  134 1   
   131  128  129 2   
   132  128  140 1   
   133  130  131 1   
   134  130  132 1   
   135  130  135 1   
   136  131  137 1   
   137  131  138 1   
   138  131  139 1   
   139  132  136 1   
   140  140  141 1   
   141  140  149 1   
   142  141  142 1   
   143  141  144 1   
   144  141  150 1   
   145  142  143 2   
   146  142  162 1   
   147  144  145 1   
   148  144  151 1   
   149  144  152 1   
   150  145  146 1   
   151  145  153 1   
   152  145  154 1   
   153  146  147 1   
   154  146  155 1   
   155  146  156 1   
   156  147  148 1   
   157  147  157 1   
   158  147  158 1   
   159  148  159 1   
   160  148  160 1   
   161  148  161 1   
   162  162  163 1   
   163  162  171 1   
   164  163  164 1   
   165  163  166 1   
   166  163  172 1   
   167  164  165 2   
   168  164  177 1   
   169  166  167 1   
   170  166  173 1   
   171  166  174 1   
   172  167  168 1   
   173  167  175 1   
   174  167  176 1   
   175  168  169 1   
   176  168  170 1   
   177  177  178 1   
   178  177  182 1   
   179  178  179 1   
   180  178  180 1   
   181  178  181 1   
   182  184  185 1   
   183  184  186 1   
   184  187  188 1   
   185  187  189 1   
   186  190  191 1   
   187  190  192 1   
@<TRIPOS>SUBSTRUCTURE
     1 MOL         1 TEMP              0 ****  ****    0 ROOT
