@<TRIPOS>MOLECULE
MOL
  176   174     1     0     0
SMALL
resp


@<TRIPOS>ATOM
      1 C1         -3.5070   -0.9290    5.9520 c3        1 MOL     -0.284690
      2 C2         -3.0530   -1.0060    4.5230 c         1 MOL      0.813048
      3 O1         -3.8960   -0.9020    3.6370 o         1 MOL     -0.613306
      4 H1         -3.3820   -1.9030    6.4260 hc        1 MOL      0.071920
      5 H2         -2.9110   -0.1880    6.4840 hc        1 MOL      0.071920
      6 H3         -4.5580   -0.6420    5.9860 hc        1 MOL      0.071920
      7 N1         -1.7500   -1.2560    4.3520 n         1 MOL     -0.665823
      8 C3         -1.1950   -1.6710    3.0570 c3        1 MOL      0.093195
      9 C4         -1.8170   -2.9330    2.3560 c         1 MOL      0.594580
     10 O2         -1.7900   -4.0270    2.9540 o         1 MOL     -0.540826
     11 C5          0.3400   -1.8790    3.1470 c3        1 MOL     -0.039339
     12 C6          1.0800   -1.8090    1.8390 c         1 MOL      0.764151
     13 O3          2.2990   -1.5420    1.8220 o         1 MOL     -0.750348
     14 O4          0.4000   -1.9370    0.7830 o         1 MOL     -0.750348
     15 H4         -1.1510   -1.2220    5.1600 hn        1 MOL      0.329904
     16 H5         -1.2710   -0.8140    2.3970 h1        1 MOL      0.002249
     17 H6          0.5100   -2.8400    3.6380 hc        1 MOL      0.014653
     18 H7          0.7400   -1.0400    3.7250 hc        1 MOL      0.014653
     19 N2         -2.3040   -2.7790    1.1050 n         1 MOL     -0.448319
     20 C7         -2.9870   -3.8230    0.3520 c3        1 MOL     -0.021023
     21 C8         -1.9760   -4.6020   -0.4900 c         1 MOL      0.527590
     22 O5         -2.3310   -5.6560   -0.9360 o         1 MOL     -0.543853
     23 C9         -4.2220   -3.2950   -0.4170 c3        1 MOL      0.159044
     24 C10        -5.1520   -4.3050   -1.1470 c3        1 MOL     -0.159863
     25 C11        -5.8480   -3.5340   -2.3100 c3        1 MOL      0.042291
     26 C12        -6.7970   -2.4430   -1.9380 c3        1 MOL     -0.065516
     27 N3         -7.9500   -2.9880   -1.1930 n4        1 MOL     -0.067902
     28 H8         -2.3210   -1.8750    0.6420 hn        1 MOL      0.242238
     29 H9         -3.3520   -4.4720    1.1460 h1        1 MOL      0.097973
     30 H10        -3.7430   -2.6720   -1.1700 hc        1 MOL     -0.015654
     31 H11        -4.7560   -2.6600    0.2850 hc        1 MOL     -0.015654
     32 H12        -5.8120   -4.8360   -0.4470 hc        1 MOL      0.049214
     33 H13        -4.5830   -5.1300   -1.5820 hc        1 MOL      0.049214
     34 H14        -6.3180   -4.2460   -2.9790 hc        1 MOL      0.030543
     35 H15        -5.0430   -3.1450   -2.9450 hc        1 MOL      0.030543
     36 H16        -7.2380   -1.9220   -2.7790 hx        1 MOL      0.053821
     37 H17        -6.2460   -1.7380   -1.3230 hx        1 MOL      0.053821
     38 H18        -7.6420   -3.1650   -0.2480 hn        1 MOL      0.220064
     39 H19        -8.7020   -2.3260   -1.0460 hn        1 MOL      0.220064
     40 H20        -8.2500   -3.8880   -1.5470 hn        1 MOL      0.220064
     41 N4         -0.7290   -4.1680   -0.6330 n         1 MOL     -0.416364
     42 C13         0.1940   -4.8090   -1.5550 c3        1 MOL      0.164713
     43 C14         1.4050   -5.3480   -0.8070 c         1 MOL      0.386914
     44 O6          2.0390   -6.3190   -1.2590 o         1 MOL     -0.505394
     45 C15         0.5260   -3.8360   -2.7630 c3        1 MOL     -0.182499
     46 C16         1.0760   -2.5520   -2.2450 c         1 MOL      0.681905
     47 O7          2.1750   -2.5480   -1.5560 o         1 MOL     -0.751995
     48 O8          0.4260   -1.5150   -2.2070 o         1 MOL     -0.751995
     49 H21        -0.3540   -3.2940   -0.2720 hn        1 MOL      0.333190
     50 H22        -0.2290   -5.6890   -2.0300 h1        1 MOL      0.060777
     51 H23        -0.3440   -3.6810   -3.4090 hc        1 MOL      0.054907
     52 H24         1.2120   -4.3610   -3.4220 hc        1 MOL      0.054907
     53 N5          1.6840   -4.6600    0.3290 n         1 MOL     -0.143852
     54 C17         2.7060   -4.9870    1.2840 c3        1 MOL     -0.298566
     55 C18         4.1060   -4.4460    0.9010 c         1 MOL      0.495826
     56 O9          5.0980   -4.8640    1.4910 o         1 MOL     -0.567516
     57 H25         1.2010   -3.7820    0.4680 hn        1 MOL      0.065009
     58 H26         2.8080   -6.0730    1.2950 h1        1 MOL      0.157434
     59 H27         2.3190   -4.7170    2.2670 h1        1 MOL      0.157434
     60 N6          4.2250   -3.7330   -0.1880 n         1 MOL     -0.010215
     61 C19         5.4080   -3.2040   -0.7760 c3        1 MOL     -0.170959
     62 C20         5.5110   -1.6840   -0.6530 c         1 MOL      0.549406
     63 O10         4.4550   -1.0050   -0.4910 o         1 MOL     -0.534857
     64 C21         5.3820   -3.6070   -2.2970 c3        1 MOL     -0.098364
     65 C22         5.3770   -5.1110   -2.5710 c         1 MOL      0.588879
     66 N7          4.7620   -5.4910   -3.6820 n         1 MOL     -0.817272
     67 O11         5.7270   -6.0020   -1.8260 o         1 MOL     -0.487238
     68 H28         3.3780   -3.4450   -0.6560 hn        1 MOL      0.201470
     69 H29         6.2440   -3.7110   -0.2950 h1        1 MOL      0.071962
     70 H30         6.2320   -3.1950   -2.8310 hc        1 MOL      0.018776
     71 H31         4.5370   -3.1570   -2.8130 hc        1 MOL      0.018776
     72 H32         4.3440   -4.8510   -4.3490 hn        1 MOL      0.373798
     73 H33         4.6820   -6.4970   -3.7830 hn        1 MOL      0.373798
     74 N8          6.7070   -1.1410   -0.8260 n         1 MOL     -0.311115
     75 C23         7.0320    0.2530   -1.0610 c3        1 MOL     -0.227754
     76 C24         6.4820    1.1520    0.0540 c         1 MOL      0.577083
     77 O12         6.7650    1.0200    1.2560 o         1 MOL     -0.490925
     78 H34         7.4660   -1.7910   -0.9640 hn        1 MOL      0.308829
     79 H35         6.6050    0.6310   -1.9880 h1        1 MOL      0.109729
     80 H36         8.1120    0.3560   -0.9630 h1        1 MOL      0.109729
     81 N9          5.6160    2.0680   -0.4350 n         1 MOL     -0.410687
     82 C25         4.6980    2.9420    0.3350 c3        1 MOL      0.055172
     83 C26         3.7770    2.2370    1.3210 c         1 MOL      0.270947
     84 O13         3.5660    1.0510    1.0760 o         1 MOL     -0.318631
     85 C27         3.9000    3.8390   -0.5850 c3        1 MOL     -0.007187
     86 C28         4.6510    4.8010   -1.4610 ca        1 MOL      0.074504
     87 C29         4.9600    6.0410   -0.9080 ca        1 MOL     -0.189899
     88 C30         5.1340    4.5320   -2.6900 ca        1 MOL     -0.189899
     89 C31         5.7500    6.9680   -1.6090 ca        1 MOL     -0.198692
     90 C32         5.9110    5.4030   -3.4560 ca        1 MOL     -0.198692
     91 C33         6.2150    6.6530   -2.9120 ca        1 MOL      0.283672
     92 O14         6.8480    7.6410   -3.6350 oh        1 MOL     -0.457681
     93 H37         5.5760    2.0980   -1.4380 hn        1 MOL      0.195387
     94 H38         5.3460    3.5660    0.9500 h1        1 MOL      0.083870
     95 H39         3.1920    4.3620    0.0490 hc        1 MOL      0.001210
     96 H40         3.3760    3.1410   -1.2420 hc        1 MOL      0.001210
     97 H41         4.5940    6.3920    0.0380 ha        1 MOL      0.134320
     98 H42         4.8950    3.5400   -3.0450 ha        1 MOL      0.134320
     99 H43         6.0040    7.9680   -1.2770 ha        1 MOL      0.142991
    100 H44         6.2900    5.0880   -4.4160 ha        1 MOL      0.142991
    101 H45         6.9400    7.3910   -4.5610 ho        1 MOL      0.358353
    102 N10         3.1500    2.9280    2.2750 n         1 MOL     -0.357645
    103 C34         2.0660    2.5510    3.2410 c3        1 MOL     -0.118371
    104 C35         0.7500    2.1180    2.5910 c         1 MOL      0.714537
    105 O15         0.7470    1.2340    1.6770 o         1 MOL     -0.668343
    106 C36         2.4470    1.4700    4.2240 c3        1 MOL      0.266629
    107 C37         1.5410    1.4040    5.4750 c3        1 MOL     -0.135581
    108 C38         3.9120    1.6240    4.6620 c3        1 MOL     -0.308796
    109 C39         1.4230    2.6570    6.3680 c3        1 MOL      0.014267
    110 H46         3.3800    3.9160    2.3020 hn        1 MOL      0.274719
    111 H47         1.9520    3.4320    3.8700 h1        1 MOL      0.079067
    112 H48         2.3740    0.5060    3.7240 hc        1 MOL      0.031170
    113 H49         1.8160    0.5420    6.0820 hc        1 MOL      0.041732
    114 H50         0.5230    1.1790    5.1620 hc        1 MOL      0.041732
    115 H51         4.1880    1.0910    5.5740 hc        1 MOL      0.087499
    116 H52         4.5260    1.4130    3.7820 hc        1 MOL      0.087499
    117 H53         4.0340    2.6860    4.8560 hc        1 MOL      0.087499
    118 H54         0.8150    3.4240    5.8940 hc        1 MOL     -0.005229
    119 H55         0.9870    2.4330    7.3540 hc        1 MOL     -0.005229
    120 H56         2.4100    3.0970    6.5050 hc        1 MOL     -0.005229
    121 N11        -0.3980    2.7740    2.9500 n         1 MOL     -0.623138
    122 C40        -1.7880    2.2340    2.7530 c3        1 MOL      0.161652
    123 C41        -2.2780    2.4660    1.2960 c         1 MOL      0.479201
    124 O16        -3.3730    2.0700    0.9410 o         1 MOL     -0.571460
    125 C42        -2.7340    2.9700    3.7480 c3        1 MOL      0.026056
    126 O17        -2.1560    3.0660    5.0530 oh        1 MOL     -0.602597
    127 H57        -0.2760    3.5360    3.6150 hn        1 MOL      0.289461
    128 H58        -1.9520    1.1650    2.8120 h1        1 MOL      0.145793
    129 H59        -3.6160    2.3320    3.7260 h1        1 MOL      0.106607
    130 H60        -2.9450    3.9970    3.4660 h1        1 MOL      0.106607
    131 H61        -1.6390    3.8790    5.1400 ho        1 MOL      0.402782
    132 N12        -1.4700    3.1170    0.3830 n         1 MOL     -0.474997
    133 C43        -1.6500    3.0460   -1.0000 c3        1 MOL      0.275773
    134 C44        -1.0560    1.7270   -1.5860 c         1 MOL      0.620554
    135 O18         0.1070    1.5570   -1.3510 o         1 MOL     -0.536739
    136 C45        -1.0810    4.3470   -1.6010 c3        1 MOL     -0.391213
    137 H62        -0.5350    3.3880    0.6480 hn        1 MOL      0.232267
    138 H63        -2.7100    3.1510   -1.2410 h1        1 MOL      0.092170
    139 H64        -1.1630    4.3710   -2.6890 hc        1 MOL      0.102912
    140 H65        -1.5740    5.2040   -1.1300 hc        1 MOL      0.102912
    141 H66        -0.0100    4.2870   -1.4070 hc        1 MOL      0.102912
    142 N13        -1.8290    0.9680   -2.3690 n         1 MOL     -0.780852
    143 C46        -3.3190    0.9950   -2.4120 c3        1 MOL      0.623677
    144 C47        -4.0360    2.1250   -3.2490 c         1 MOL      0.278389
    145 O19        -3.5210    2.4630   -4.3010 o         1 MOL     -0.520474
    146 C48        -3.7850   -0.3930   -2.6890 c3        1 MOL     -0.343959
    147 H67        -1.3150    0.1590   -2.6760 hn        1 MOL      0.367636
    148 H68        -3.5660    1.1280   -1.3570 h1        1 MOL     -0.030371
    149 H69        -2.9780   -1.0170   -2.2960 hc        1 MOL      0.094014
    150 H70        -4.7580   -0.5310   -2.2100 hc        1 MOL      0.094014
    151 H71        -3.8980   -0.6420   -3.7430 hc        1 MOL      0.094014
    152 N14        -5.2860    2.4520   -2.9780 n         1 MOL     -0.293167
    153 C49        -5.9600    2.4240   -1.6720 c3        1 MOL     -0.656927
    154 C50        -6.2260    3.8850   -1.1080 c         1 MOL      0.652150
    155 O20        -5.9250    4.1210    0.0590 o         1 MOL     -0.518994
    156 C51        -7.2510    1.5350   -1.8460 c3        1 MOL      0.257827
    157 C52        -7.7890    1.0400   -0.5800 c3        1 MOL     -0.274317
    158 C53        -9.0540    0.2300   -0.7620 c         1 MOL      0.759575
    159 O21        -9.9670    0.6310   -1.5190 o         1 MOL     -0.697363
    160 O22        -9.1680   -0.8880   -0.1890 o         1 MOL     -0.697363
    161 H72        -5.8380    2.9180   -3.6910 hn        1 MOL      0.298153
    162 H73        -5.3520    1.9510   -0.8980 h1        1 MOL      0.323955
    163 H74        -6.9860    0.7070   -2.5150 hc        1 MOL     -0.018079
    164 H75        -8.0090    2.1250   -2.3600 hc        1 MOL     -0.018079
    165 H76        -8.0870    1.8350    0.1160 hc        1 MOL      0.059483
    166 H77        -6.9540    0.4770   -0.1830 hc        1 MOL      0.059483
    167 N15        -6.5880    4.8260   -1.9950 n         1 MOL     -0.318880
    168 C54        -6.7660    6.2060   -1.6050 c3        1 MOL     -0.156022
    169 H78        -6.7000    6.8430   -2.4860 h1        1 MOL      0.088687
    170 H79        -7.7450    6.3300   -1.1400 h1        1 MOL      0.088687
    171 H80        -5.9890    6.4860   -0.8940 h1        1 MOL      0.088687
    172 H81        -6.7220    4.6040   -2.9730 hn        1 MOL      0.287088
    173 Ca1         1.9930   -0.3090   -0.5470 Ca        1 MOL      1.728120
    174 O23         2.8060    0.8250   -2.7690 oh        1 MOL     -0.856979
    175 H82         3.3480    0.3270   -3.3820 ho        1 MOL      0.428292
    176 H83         2.6200    1.6480   -3.2230 ho        1 MOL      0.428292
@<TRIPOS>BOND
     1    1    2 1   
     2    1    4 1   
     3    1    5 1   
     4    1    6 1   
     5    2    3 2   
     6    2    7 1   
     7    7    8 1   
     8    7   15 1   
     9    8    9 1   
    10    8   11 1   
    11    8   16 1   
    12    9   10 2   
    13    9   19 1   
    14   11   12 1   
    15   11   17 1   
    16   11   18 1   
    17   12   13 1   
    18   12   14 1   
    19   19   20 1   
    20   19   28 1   
    21   20   21 1   
    22   20   23 1   
    23   20   29 1   
    24   21   22 2   
    25   21   41 1   
    26   23   24 1   
    27   23   30 1   
    28   23   31 1   
    29   24   25 1   
    30   24   32 1   
    31   24   33 1   
    32   25   26 1   
    33   25   34 1   
    34   25   35 1   
    35   26   27 1   
    36   26   36 1   
    37   26   37 1   
    38   27   38 1   
    39   27   39 1   
    40   27   40 1   
    41   41   42 1   
    42   41   49 1   
    43   42   43 1   
    44   42   45 1   
    45   42   50 1   
    46   43   44 2   
    47   43   53 1   
    48   45   46 1   
    49   45   51 1   
    50   45   52 1   
    51   46   47 1   
    52   46   48 1   
    53   53   54 1   
    54   53   57 1   
    55   54   55 1   
    56   54   58 1   
    57   54   59 1   
    58   55   56 2   
    59   55   60 1   
    60   60   61 1   
    61   60   68 1   
    62   61   62 1   
    63   61   64 1   
    64   61   69 1   
    65   62   63 2   
    66   62   74 1   
    67   64   65 1   
    68   64   70 1   
    69   64   71 1   
    70   65   66 1   
    71   65   67 2   
    72   66   72 1   
    73   66   73 1   
    74   74   75 1   
    75   74   78 1   
    76   75   76 1   
    77   75   79 1   
    78   75   80 1   
    79   76   77 2   
    80   76   81 1   
    81   81   82 1   
    82   81   93 1   
    83   82   83 1   
    84   82   85 1   
    85   82   94 1   
    86   83   84 2   
    87   83  102 1   
    88   85   86 1   
    89   85   95 1   
    90   85   96 1   
    91   86   87 ar  
    92   86   88 ar  
    93   87   89 ar  
    94   87   97 1   
    95   88   90 ar  
    96   88   98 1   
    97   89   91 ar  
    98   89   99 1   
    99   90   91 ar  
   100   90  100 1   
   101   91   92 1   
   102   92  101 1   
   103  102  103 1   
   104  102  110 1   
   105  103  104 1   
   106  103  106 1   
   107  103  111 1   
   108  104  105 2   
   109  104  121 1   
   110  106  107 1   
   111  106  108 1   
   112  106  112 1   
   113  107  109 1   
   114  107  113 1   
   115  107  114 1   
   116  108  115 1   
   117  108  116 1   
   118  108  117 1   
   119  109  118 1   
   120  109  119 1   
   121  109  120 1   
   122  121  122 1   
   123  121  127 1   
   124  122  123 1   
   125  122  125 1   
   126  122  128 1   
   127  123  124 2   
   128  123  132 1   
   129  125  126 1   
   130  125  129 1   
   131  125  130 1   
   132  126  131 1   
   133  132  133 1   
   134  132  137 1   
   135  133  134 1   
   136  133  136 1   
   137  133  138 1   
   138  134  135 2   
   139  134  142 1   
   140  136  139 1   
   141  136  140 1   
   142  136  141 1   
   143  142  143 1   
   144  142  147 1   
   145  143  144 1   
   146  143  146 1   
   147  143  148 1   
   148  144  145 2   
   149  144  152 1   
   150  146  149 1   
   151  146  150 1   
   152  146  151 1   
   153  152  153 1   
   154  152  161 1   
   155  153  154 1   
   156  153  156 1   
   157  153  162 1   
   158  154  155 2   
   159  154  167 1   
   160  156  157 1   
   161  156  163 1   
   162  156  164 1   
   163  157  158 1   
   164  157  165 1   
   165  157  166 1   
   166  158  159 1   
   167  158  160 1   
   168  167  168 1   
   169  167  172 1   
   170  168  169 1   
   171  168  170 1   
   172  168  171 1   
   173  174  175 1   
   174  174  176 1   
@<TRIPOS>SUBSTRUCTURE
     1 MOL         1 TEMP              0 ****  ****    0 ROOT
