@<TRIPOS>MOLECULE
MOL
  175   173     1     0     0
SMALL
resp


@<TRIPOS>ATOM
      1 C1         -6.6880    7.9510    1.4840 c3        1 MOL     -0.430394
      2 C2         -7.5470    7.0270    0.6210 c         1 MOL      0.648473
      3 O1         -7.5200    7.1800   -0.6300 o         1 MOL     -0.576827
      4 H1         -6.6280    7.5500    2.4960 hc        1 MOL      0.103793
      5 H2         -5.6850    8.0160    1.0600 hc        1 MOL      0.103793
      6 H3         -7.1370    8.9440    1.5120 hc        1 MOL      0.103793
      7 N1         -8.2420    6.0610    1.1930 n         1 MOL     -0.368706
      8 C3         -9.1010    5.1050    0.4640 c3        1 MOL     -0.110178
      9 C4         -8.2570    4.0900   -0.3210 c         1 MOL      0.646325
     10 O2         -8.7280    3.4330   -1.2300 o         1 MOL     -0.553193
     11 C5        -10.0070    4.4070    1.4690 c3        1 MOL     -0.112978
     12 C6        -11.0600    3.5170    0.8050 c         1 MOL      0.734191
     13 O3        -10.9640    2.3110    1.0610 o         1 MOL     -0.736054
     14 O4        -12.0210    4.0850    0.1860 o         1 MOL     -0.736054
     15 H4         -8.1400    5.8600    2.1760 hn        1 MOL      0.236895
     16 H5         -9.7090    5.7200   -0.2110 h1        1 MOL      0.109282
     17 H6        -10.5980    5.0640    2.1080 hc        1 MOL      0.001882
     18 H7         -9.4340    3.7260    2.1000 hc        1 MOL      0.001882
     19 N2         -6.9680    4.0020   -0.0350 n         1 MOL     -0.611834
     20 C7         -5.9930    3.2020   -0.7740 c3        1 MOL      0.339153
     21 C8         -5.0300    2.5310    0.2140 c         1 MOL      0.544888
     22 O5         -4.3780    3.1850    0.9540 o         1 MOL     -0.520156
     23 C9         -5.2440    4.1780   -1.6620 c3        1 MOL     -0.287548
     24 H8         -6.7260    4.4850    0.8130 hn        1 MOL      0.282004
     25 H9         -6.5360    2.5190   -1.4340 h1        1 MOL      0.053808
     26 H10        -4.6160    3.5620   -2.2990 hc        1 MOL      0.076124
     27 H11        -5.8830    4.7440   -2.3380 hc        1 MOL      0.076124
     28 H12        -4.6170    4.8100   -1.0340 hc        1 MOL      0.076124
     29 N3         -4.8090    1.1730    0.1960 n         1 MOL     -0.492566
     30 C10        -5.4300    0.1450   -0.6580 c3        1 MOL     -0.147987
     31 C11        -5.5680   -1.1880    0.1310 c         1 MOL      0.617280
     32 O6         -4.6970   -1.6430    0.8960 o         1 MOL     -0.539735
     33 C12        -4.6220   -0.1220   -2.0380 c3        1 MOL     -0.260089
     34 C13        -3.1610   -0.5610   -1.7540 c         1 MOL      0.845336
     35 O7         -2.3360    0.1350   -1.1210 o         1 MOL     -0.748755
     36 O8         -2.7730   -1.6060   -2.2090 o         1 MOL     -0.748755
     37 H13        -4.0050    0.8670    0.7330 hn        1 MOL      0.309047
     38 H14        -6.3920    0.4140   -1.1050 h1        1 MOL      0.104969
     39 H15        -4.6190    0.8680   -2.5180 hc        1 MOL      0.069211
     40 H16        -5.1600   -0.8620   -2.6170 hc        1 MOL      0.069211
     41 N4         -6.6990   -1.8430   -0.2110 n         1 MOL     -0.504331
     42 C14        -6.9300   -3.2620    0.1020 c3        1 MOL      0.178995
     43 C15        -6.8510   -4.2210   -1.1080 c         1 MOL      0.430824
     44 O9         -7.9060   -4.4620   -1.7610 o         1 MOL     -0.559839
     45 H17        -7.3030   -1.3930   -0.8830 hn        1 MOL      0.345671
     46 H18        -7.9060   -3.4600    0.5510 h1        1 MOL      0.027344
     47 H19        -6.2660   -3.5470    0.9120 h1        1 MOL      0.027344
     48 N5         -5.7530   -4.7370   -1.5810 n         1 MOL     -0.421550
     49 C16        -4.3790   -4.4690   -1.0260 c3        1 MOL      0.070335
     50 C17        -4.0620   -5.2700    0.2040 c         1 MOL      0.554948
     51 O10        -4.3650   -6.4610    0.3210 o         1 MOL     -0.589382
     52 C18        -3.2830   -4.6600   -2.1370 c3        1 MOL     -0.215657
     53 C19        -1.8240   -4.4250   -1.8100 c         1 MOL      0.677030
     54 N6         -0.9670   -4.8140   -2.6740 n         1 MOL     -0.701330
     55 O11        -1.4660   -3.8820   -0.7920 o         1 MOL     -0.670981
     56 H20        -5.8090   -5.3680   -2.3640 hn        1 MOL      0.308940
     57 H21        -4.3390   -3.4070   -0.7440 h1        1 MOL      0.113964
     58 H22        -3.5230   -3.9880   -2.9680 hc        1 MOL      0.056060
     59 H23        -3.5010   -5.7110   -2.3110 hc        1 MOL      0.056060
     60 H24        -1.3110   -5.1160   -3.5720 hn        1 MOL      0.331914
     61 H25        -0.0080   -4.5180   -2.5320 hn        1 MOL      0.331914
     62 N7         -3.4270   -4.6180    1.1570 n         1 MOL     -0.278850
     63 C20        -2.9940   -5.1430    2.4530 c3        1 MOL     -0.218267
     64 C21        -1.4430   -5.1720    2.6990 c         1 MOL      0.499384
     65 O12        -1.1010   -5.4070    3.8710 o         1 MOL     -0.610447
     66 H26        -3.1080   -3.6820    0.9590 hn        1 MOL      0.241093
     67 H27        -3.4590   -6.1250    2.5580 h1        1 MOL      0.115519
     68 H28        -3.4360   -4.5130    3.2250 h1        1 MOL      0.115519
     69 N8         -0.6090   -4.9980    1.7530 n         1 MOL     -0.154090
     70 C22         0.8900   -5.0580    1.7960 c3        1 MOL     -0.049405
     71 C23         1.4910   -3.7430    1.6730 c         1 MOL      0.437678
     72 O13         0.8200   -2.8980    1.0440 o         1 MOL     -0.465932
     73 C24         1.3830   -6.0590    0.7190 c3        1 MOL      0.312043
     74 C25         1.0640   -7.5610    0.9620 c3        1 MOL     -0.364983
     75 O14         0.8360   -5.7690   -0.4540 oh        1 MOL     -0.546186
     76 H29        -0.9750   -4.8560    0.8190 hn        1 MOL      0.260418
     77 H30         1.2250   -5.4140    2.7730 h1        1 MOL      0.063222
     78 H31         2.4640   -6.0180    0.5800 h1        1 MOL     -0.000757
     79 H32         1.4060   -5.1080   -0.8570 ho        1 MOL      0.404420
     80 H33        -0.0050   -7.6930    1.1400 hc        1 MOL      0.088459
     81 H34         1.3200   -8.0830    0.0400 hc        1 MOL      0.088459
     82 H35         1.5890   -7.8960    1.8560 hc        1 MOL      0.088459
     83 N9          2.7370   -3.5250    2.1180 n         1 MOL     -0.557520
     84 C26         3.5590   -2.3080    2.0500 c3        1 MOL      0.459109
     85 C27         4.4610   -2.3930    0.8190 c         1 MOL      0.250326
     86 O15         5.6050   -2.8290    0.8710 o         1 MOL     -0.579592
     87 C28         4.3940   -2.2530    3.3710 c3        1 MOL      0.193192
     88 C29         5.4770   -1.1990    3.4180 c3        1 MOL     -0.069635
     89 C30         3.4760   -2.2000    4.7110 c3        1 MOL     -0.420896
     90 C31         4.9610    0.3040    3.3110 c3        1 MOL     -0.267772
     91 H36         3.1500   -4.3090    2.6070 hn        1 MOL      0.271124
     92 H37         2.8870   -1.4520    1.9510 h1        1 MOL     -0.011196
     93 H38         4.9600   -3.1810    3.3650 hc        1 MOL     -0.035090
     94 H39         6.2720   -1.4250    2.7110 hc        1 MOL      0.025268
     95 H40         5.9950   -1.2520    4.3880 hc        1 MOL      0.025268
     96 H41         3.0540   -3.1890    4.8780 hc        1 MOL      0.101663
     97 H42         4.1110   -2.0910    5.5950 hc        1 MOL      0.101663
     98 H43         2.7450   -1.4040    4.6440 hc        1 MOL      0.101663
     99 H44         5.6990    1.0250    3.6830 hc        1 MOL      0.067463
    100 H45         4.8010    0.5040    2.2490 hc        1 MOL      0.067463
    101 H46         4.0100    0.3590    3.8210 hc        1 MOL      0.067463
    102 N10         3.9330   -2.0650   -0.2850 n         1 MOL      0.008996
    103 C32         4.5540   -2.2960   -1.6110 c3        1 MOL      0.138200
    104 C33         5.5920   -1.1430   -1.9750 c         1 MOL      0.464256
    105 O16         6.2290   -1.0870   -3.0340 o         1 MOL     -0.555627
    106 C34         3.5080   -2.4730   -2.6010 c3        1 MOL     -0.297475
    107 C35         2.4510   -3.5030   -2.2660 c         1 MOL      0.673506
    108 O17         2.8530   -4.6790   -2.1110 o         1 MOL     -0.650130
    109 O18         1.2530   -3.1470   -2.0360 o         1 MOL     -0.650130
    110 H47         2.9910   -1.6970   -0.3480 hn        1 MOL     -0.028648
    111 H48         5.1750   -3.1790   -1.5270 h1        1 MOL      0.073984
    112 H49         4.0170   -2.7910   -3.5150 hc        1 MOL      0.075474
    113 H50         2.9850   -1.5420   -2.8220 hc        1 MOL      0.075474
    114 N11         5.7560   -0.1450   -1.0610 n         1 MOL     -0.486081
    115 C36         6.8810    0.7910   -1.0700 c3        1 MOL      0.476992
    116 C37         6.2720    2.2020   -0.6680 c         1 MOL      0.109070
    117 O19         5.6280    2.2310    0.3820 o         1 MOL     -0.399121
    118 C38         7.9050    0.2860   -0.0680 c3        1 MOL     -0.299746
    119 C39         8.8980    1.3520    0.2560 ca        1 MOL      0.059793
    120 C40         8.8840    1.9910    1.5300 ca        1 MOL     -0.114103
    121 C41         9.8920    1.6700   -0.7330 ca        1 MOL     -0.114103
    122 C42         9.8200    2.9890    1.7730 ca        1 MOL     -0.187586
    123 C43        10.8410    2.6340   -0.4360 ca        1 MOL     -0.187586
    124 C44        10.8440    3.2720    0.8630 ca        1 MOL     -0.053956
    125 H51         5.1180   -0.2030   -0.2730 hn        1 MOL      0.255746
    126 H52         7.3440    0.8460   -2.0510 h1        1 MOL     -0.025050
    127 H53         8.4570   -0.5330   -0.5290 hc        1 MOL      0.112892
    128 H54         7.5910   -0.1820    0.8600 hc        1 MOL      0.112892
    129 H55         8.1160    1.7740    2.2530 ha        1 MOL      0.124472
    130 H56         9.9160    1.1000   -1.6580 ha        1 MOL      0.124472
    131 H57         9.8300    3.5320    2.7060 ha        1 MOL      0.123458
    132 H58        11.4270    3.0450   -1.2410 ha        1 MOL      0.123458
    133 H59        11.6080    4.0110    1.0360 ha        1 MOL      0.087940
    134 N12         6.4480    3.2210   -1.5450 n         1 MOL     -0.014146
    135 C45         6.2630    4.6030   -1.1840 c3        1 MOL      0.064135
    136 C46         4.8360    5.0500   -0.6590 c         1 MOL      0.259422
    137 O20         4.7630    6.1530   -0.0330 o         1 MOL     -0.530363
    138 C47         6.6950    5.4110   -2.3550 c3        1 MOL     -0.120848
    139 C48         7.7030    4.5410   -3.0460 c3        1 MOL      0.000964
    140 C49         7.1850    3.1540   -2.8000 c3        1 MOL     -0.006271
    141 H60         6.9560    4.9660   -0.4270 h1        1 MOL      0.101273
    142 H61         5.8890    5.6130   -3.0520 hc        1 MOL      0.062233
    143 H62         7.2200    6.3050   -2.0000 hc        1 MOL      0.062233
    144 H63         7.8240    4.7450   -4.1130 hc        1 MOL      0.012707
    145 H64         8.6440    4.6070   -2.4850 hc        1 MOL      0.012707
    146 H65         6.4640    2.8770   -3.5710 h1        1 MOL      0.037962
    147 H66         8.0340    2.4900   -2.6530 h1        1 MOL      0.037962
    148 N13         3.8190    4.1690   -0.6390 n         1 MOL     -0.137275
    149 C50         2.4260    4.3240   -0.1920 c3        1 MOL     -0.079638
    150 C51         2.4070    4.8100    1.2900 c         1 MOL      0.502382
    151 O21         1.3780    5.2920    1.7490 o         1 MOL     -0.547601
    152 C52         1.6580    2.9550   -0.3870 c3        1 MOL     -0.195122
    153 C53         2.2730    1.8750    0.4440 c3        1 MOL      0.185567
    154 C54         1.6220    0.5630    0.1070 c         1 MOL      0.622242
    155 O22         1.9830   -0.1480   -0.8780 o         1 MOL     -0.734720
    156 O23         0.6170    0.1760    0.7470 o         1 MOL     -0.734720
    157 H67         4.0150    3.3270   -1.1570 hn        1 MOL      0.170294
    158 H68         1.8900    5.1090   -0.7350 h1        1 MOL      0.103698
    159 H69         1.6940    2.6820   -1.4390 hc        1 MOL      0.085777
    160 H70         0.6350    3.0290   -0.0190 hc        1 MOL      0.085777
    161 H71         2.1080    2.0520    1.5070 hc        1 MOL     -0.033223
    162 H72         3.3420    1.8390    0.2460 hc        1 MOL     -0.033223
    163 N14         3.4100    4.6300    2.1470 n         1 MOL     -0.140367
    164 C55         3.4130    4.9020    3.6150 c3        1 MOL     -0.230275
    165 H73         3.0300    4.0300    4.1450 h1        1 MOL      0.101135
    166 H74         4.4310    5.1090    3.9450 h1        1 MOL      0.101135
    167 H75         2.7790    5.7630    3.8260 h1        1 MOL      0.101135
    168 H76         4.1080    3.9860    1.8290 hn        1 MOL      0.165718
    169 Ca1        -0.3490   -1.4880   -0.9700 Ca        1 MOL      1.748904
    170 O24        -2.1120   -1.8020    1.1070 oh        1 MOL     -0.909556
    171 H77        -1.7930   -1.2580    1.8230 ho        1 MOL      0.431010
    172 H78        -3.0460   -1.5760    1.0290 ho        1 MOL      0.431010
    173 O25        -0.1150   -0.3880   -3.4660 oh        1 MOL     -0.909556
    174 H79        -0.6650    0.1520   -4.0460 ho        1 MOL      0.431010
    175 H80         0.6940   -0.5120   -3.9680 ho        1 MOL      0.431010
@<TRIPOS>BOND
     1    1    2 1   
     2    1    4 1   
     3    1    5 1   
     4    1    6 1   
     5    2    3 2   
     6    2    7 1   
     7    7    8 1   
     8    7   15 1   
     9    8    9 1   
    10    8   11 1   
    11    8   16 1   
    12    9   10 2   
    13    9   19 1   
    14   11   12 1   
    15   11   17 1   
    16   11   18 1   
    17   12   13 1   
    18   12   14 1   
    19   19   20 1   
    20   19   24 1   
    21   20   21 1   
    22   20   23 1   
    23   20   25 1   
    24   21   22 2   
    25   21   29 1   
    26   23   26 1   
    27   23   27 1   
    28   23   28 1   
    29   29   30 1   
    30   29   37 1   
    31   30   31 1   
    32   30   33 1   
    33   30   38 1   
    34   31   32 2   
    35   31   41 1   
    36   33   34 1   
    37   33   39 1   
    38   33   40 1   
    39   34   35 1   
    40   34   36 1   
    41   41   42 1   
    42   41   45 1   
    43   42   43 1   
    44   42   46 1   
    45   42   47 1   
    46   43   44 2   
    47   43   48 1   
    48   48   49 1   
    49   48   56 1   
    50   49   50 1   
    51   49   52 1   
    52   49   57 1   
    53   50   51 2   
    54   50   62 1   
    55   52   53 1   
    56   52   58 1   
    57   52   59 1   
    58   53   54 1   
    59   53   55 2   
    60   54   60 1   
    61   54   61 1   
    62   62   63 1   
    63   62   66 1   
    64   63   64 1   
    65   63   67 1   
    66   63   68 1   
    67   64   65 2   
    68   64   69 1   
    69   69   70 1   
    70   69   76 1   
    71   70   71 1   
    72   70   73 1   
    73   70   77 1   
    74   71   72 2   
    75   71   83 1   
    76   73   74 1   
    77   73   75 1   
    78   73   78 1   
    79   74   80 1   
    80   74   81 1   
    81   74   82 1   
    82   75   79 1   
    83   83   84 1   
    84   83   91 1   
    85   84   85 1   
    86   84   87 1   
    87   84   92 1   
    88   85   86 2   
    89   85  102 1   
    90   87   88 1   
    91   87   89 1   
    92   87   93 1   
    93   88   90 1   
    94   88   94 1   
    95   88   95 1   
    96   89   96 1   
    97   89   97 1   
    98   89   98 1   
    99   90   99 1   
   100   90  100 1   
   101   90  101 1   
   102  102  103 1   
   103  102  110 1   
   104  103  104 1   
   105  103  106 1   
   106  103  111 1   
   107  104  105 2   
   108  104  114 1   
   109  106  107 1   
   110  106  112 1   
   111  106  113 1   
   112  107  108 1   
   113  107  109 1   
   114  114  115 1   
   115  114  125 1   
   116  115  116 1   
   117  115  118 1   
   118  115  126 1   
   119  116  117 2   
   120  116  134 1   
   121  118  119 1   
   122  118  127 1   
   123  118  128 1   
   124  119  120 ar  
   125  119  121 ar  
   126  120  122 ar  
   127  120  129 1   
   128  121  123 ar  
   129  121  130 1   
   130  122  124 ar  
   131  122  131 1   
   132  123  124 ar  
   133  123  132 1   
   134  124  133 1   
   135  134  135 1   
   136  134  140 1   
   137  135  136 1   
   138  135  138 1   
   139  135  141 1   
   140  136  137 2   
   141  136  148 1   
   142  138  139 1   
   143  138  142 1   
   144  138  143 1   
   145  139  140 1   
   146  139  144 1   
   147  139  145 1   
   148  140  146 1   
   149  140  147 1   
   150  148  149 1   
   151  148  157 1   
   152  149  150 1   
   153  149  152 1   
   154  149  158 1   
   155  150  151 2   
   156  150  163 1   
   157  152  153 1   
   158  152  159 1   
   159  152  160 1   
   160  153  154 1   
   161  153  161 1   
   162  153  162 1   
   163  154  155 1   
   164  154  156 1   
   165  163  164 1   
   166  163  168 1   
   167  164  165 1   
   168  164  166 1   
   169  164  167 1   
   170  170  171 1   
   171  170  172 1   
   172  173  174 1   
   173  173  175 1   
@<TRIPOS>SUBSTRUCTURE
     1 MOL         1 TEMP              0 ****  ****    0 ROOT
