@<TRIPOS>MOLECULE
MOL
  192   187     1     0     0
SMALL
resp


@<TRIPOS>ATOM
      1 C1          9.1760    0.3320    2.1450 c3        1 MOL     -0.550742
      2 C2          8.1420    0.4370    1.1020 c         1 MOL      0.678958
      3 O1          7.3670    1.3630    0.9690 o         1 MOL     -0.548971
      4 H1          8.9240   -0.4800    2.8260 hc        1 MOL      0.136912
      5 H2         10.1420    0.1300    1.6810 hc        1 MOL      0.136912
      6 H3          9.2280    1.2680    2.7010 hc        1 MOL      0.136912
      7 N1          8.2480   -0.4950    0.1480 n         1 MOL     -0.557776
      8 C3          7.3970   -0.5550   -1.0410 c3        1 MOL      0.239222
      9 C4          6.6330   -1.8700   -1.1830 c         1 MOL      0.332413
     10 O2          6.4610   -2.3040   -2.2930 o         1 MOL     -0.454264
     11 C5          8.3530   -0.3830   -2.3110 c3        1 MOL     -0.186568
     12 C6          9.1600    0.9400   -2.3600 c         1 MOL      0.775752
     13 O3         10.2850    0.9900   -2.8010 o         1 MOL     -0.640886
     14 O4          8.5430    1.9670   -2.1320 o         1 MOL     -0.640886
     15 H4          8.9680   -1.2010    0.2110 hn        1 MOL      0.289120
     16 H5          6.5850    0.1720   -1.0510 h1        1 MOL      0.076663
     17 H6          7.7720   -0.4360   -3.2230 hc        1 MOL      0.021904
     18 H7          9.0800   -1.1850   -2.2940 hc        1 MOL      0.021904
     19 N2          6.3400   -2.5150   -0.0880 n         1 MOL     -0.184366
     20 C7          5.8420   -3.9540    0.0260 c3        1 MOL      0.047672
     21 C8          4.3920   -4.1890   -0.4650 c         1 MOL      0.479125
     22 O5          4.1010   -5.0670   -1.2600 o         1 MOL     -0.518266
     23 C9          5.9020   -4.5100    1.4680 c3        1 MOL      0.011987
     24 C10         7.4130   -4.7930    1.7120 c3        1 MOL     -0.248242
     25 C11         7.6500   -5.1000    3.1930 c3        1 MOL      0.084803
     26 C12         9.1790   -5.2210    3.4280 c3        1 MOL      0.026954
     27 N3          9.5090   -5.4880    4.8490 n4        1 MOL     -0.192902
     28 H8          6.5920   -2.0330    0.7650 hn        1 MOL      0.154003
     29 H9          6.3610   -4.6100   -0.6740 h1        1 MOL      0.070120
     30 H10         5.2730   -5.3930    1.5370 hc        1 MOL      0.047233
     31 H11         5.5190   -3.8140    2.2230 hc        1 MOL      0.047233
     32 H12         7.9990   -3.9030    1.4750 hc        1 MOL      0.075038
     33 H13         7.6090   -5.6730    1.1060 hc        1 MOL      0.075038
     34 H14         7.1330   -6.0220    3.4770 hc        1 MOL      0.006190
     35 H15         7.2330   -4.3600    3.8830 hc        1 MOL      0.006190
     36 H16         9.5720   -4.2590    3.0720 hx        1 MOL      0.062358
     37 H17         9.5020   -6.0650    2.8150 hx        1 MOL      0.062358
     38 H18         9.3500   -4.6700    5.4180 hn        1 MOL      0.209439
     39 H19         8.9790   -6.2850    5.1550 hn        1 MOL      0.209439
     40 H20        10.4810   -5.7450    4.9990 hn        1 MOL      0.209439
     41 N4          3.3600   -3.3660   -0.1540 n         1 MOL     -0.462698
     42 C13         3.4140   -2.1620    0.6910 c3        1 MOL     -0.003226
     43 C14         3.7070   -0.9400   -0.1510 c         1 MOL      0.497534
     44 O6          3.7020   -0.9240   -1.4050 o         1 MOL     -0.418267
     45 C15         2.1870   -2.1130    1.6230 c3        1 MOL     -0.118728
     46 C16         0.8400   -2.0680    0.9020 c         1 MOL      0.632492
     47 O7          0.6890   -1.4570   -0.1700 o         1 MOL     -0.631235
     48 O8         -0.0990   -2.6450    1.5280 o         1 MOL     -0.631235
     49 H21         2.4580   -3.5940   -0.5340 hn        1 MOL      0.357575
     50 H22         4.2810   -2.2220    1.3450 h1        1 MOL      0.035059
     51 H23         2.1980   -1.2770    2.3180 hc        1 MOL      0.027772
     52 H24         2.2290   -3.0330    2.2050 hc        1 MOL      0.027772
     53 N5          3.9100    0.1550    0.5720 n         1 MOL     -0.663468
     54 C17         4.2150    1.4950    0.0210 c3        1 MOL      0.144098
     55 C18         3.1090    2.2890   -0.7210 c         1 MOL      0.531657
     56 O9          1.9260    1.9140   -0.6600 o         1 MOL     -0.693187
     57 H25         3.8520    0.0940    1.5880 hn        1 MOL      0.347314
     58 H26         5.0220    1.3820   -0.7090 h1        1 MOL      0.066599
     59 H27         4.6480    2.1650    0.7690 h1        1 MOL      0.066599
     60 N6          3.5400    3.3390   -1.3990 n         1 MOL     -0.493030
     61 C19         2.6350    4.2970   -2.0000 c3        1 MOL      0.390946
     62 C20         3.1090    5.7480   -1.8900 c         1 MOL      0.433437
     63 O10         4.3300    6.0750   -1.7390 o         1 MOL     -0.519235
     64 C21         2.3030    3.9860   -3.4180 c3        1 MOL     -0.381024
     65 C22         1.7500    2.6190   -3.4740 c         1 MOL      0.756555
     66 O11         0.6400    2.3810   -2.9110 o         1 MOL     -0.668571
     67 O12         2.4000    1.7410   -4.1360 o         1 MOL     -0.668571
     68 H28         4.4970    3.6450   -1.3250 hn        1 MOL      0.303121
     69 H29         1.7270    4.2080   -1.4060 h1        1 MOL      0.008296
     70 H30         3.2420    4.1190   -3.9670 hc        1 MOL      0.092252
     71 H31         1.5470    4.6790   -3.8050 hc        1 MOL      0.092252
     72 N7          2.2340    6.7800   -1.8320 n         1 MOL     -0.501867
     73 C23         0.7970    6.5990   -1.8220 c3        1 MOL      0.047267
     74 C24         0.1020    6.1640   -0.5290 c         1 MOL      0.506484
     75 O13         0.7370    5.9750    0.5130 o         1 MOL     -0.465274
     76 H32         2.5780    7.6540   -1.4690 hn        1 MOL      0.336071
     77 H33         0.4380    5.9280   -2.6030 h1        1 MOL      0.046462
     78 H34         0.3840    7.5610   -2.1170 h1        1 MOL      0.046462
     79 N8         -1.1980    5.8840   -0.7430 n         1 MOL     -0.542192
     80 C25        -2.0160    5.1580    0.2190 c3        1 MOL      0.006964
     81 C26        -1.3330    3.8680    0.6670 c         1 MOL      0.744300
     82 O14        -0.8540    3.0470   -0.1670 o         1 MOL     -0.612010
     83 C27        -3.4540    5.0850   -0.3860 c3        1 MOL      0.250413
     84 C28        -4.5370    4.2230    0.2140 c3        1 MOL     -0.325927
     85 O15        -3.2150    4.7290   -1.7140 oh        1 MOL     -0.609474
     86 H35        -1.5760    5.8480   -1.6770 hn        1 MOL      0.320047
     87 H36        -2.1130    5.7640    1.1260 h1        1 MOL      0.045836
     88 H37        -3.8280    6.1040   -0.2840 h1        1 MOL      0.027597
     89 H38        -3.9770    4.4730   -2.2260 ho        1 MOL      0.424648
     90 H39        -4.3160    3.1950   -0.0820 hc        1 MOL      0.102342
     91 H40        -4.5830    4.3620    1.2950 hc        1 MOL      0.102342
     92 H41        -5.4960    4.4620   -0.2530 hc        1 MOL      0.102342
     93 N9         -1.3540    3.7240    1.9840 n         1 MOL     -0.587369
     94 C29        -0.7520    2.5420    2.6090 c3        1 MOL     -0.023351
     95 C30        -1.4220    1.2190    2.1920 c         1 MOL      0.493703
     96 O16        -1.1330    0.6510    1.1310 o         1 MOL     -0.590883
     97 C31         0.8170    2.5060    2.6600 c3        1 MOL      0.037641
     98 C32         1.3820    3.7500    3.2920 c3        1 MOL      0.045322
     99 C33         1.2970    1.2370    3.3740 c3        1 MOL     -0.478138
    100 C34         2.9040    3.9080    2.9110 c3        1 MOL     -0.060248
    101 H42        -1.7480    4.3840    2.6380 hn        1 MOL      0.331631
    102 H43        -0.9430    2.6930    3.6710 h1        1 MOL      0.055757
    103 H44         1.0860    2.5150    1.6020 hc        1 MOL      0.191538
    104 H45         1.2810    3.5460    4.3610 hc        1 MOL     -0.014605
    105 H46         0.8410    4.6540    3.0000 hc        1 MOL     -0.014605
    106 H47         0.9170    1.1890    4.4020 hc        1 MOL      0.131669
    107 H48         0.8490    0.3420    2.9400 hc        1 MOL      0.131669
    108 H49         2.3870    1.1780    3.4090 hc        1 MOL      0.131669
    109 H50         3.4750    2.9780    2.9000 hc        1 MOL      0.015476
    110 H51         2.8510    4.4590    1.9680 hc        1 MOL      0.015476
    111 H52         3.4010    4.5390    3.6530 hc        1 MOL      0.015476
    112 N10        -2.2320    0.6860    3.1110 n         1 MOL     -0.305572
    113 C35        -2.8600   -0.6340    3.0230 c3        1 MOL     -0.001708
    114 C36        -4.3580   -0.6190    2.9900 c         1 MOL      0.510443
    115 O17        -4.9560   -1.6810    3.2430 o         1 MOL     -0.564709
    116 C37        -2.2960   -1.5690    4.0920 c3        1 MOL      0.425776
    117 C38        -2.3750   -0.9870    5.5000 c3        1 MOL     -0.273155
    118 O18        -0.9130   -1.8040    3.9250 oh        1 MOL     -0.579276
    119 H53        -2.4060    1.2570    3.9260 hn        1 MOL      0.228913
    120 H54        -2.4770   -1.2210    2.1880 h1        1 MOL      0.068166
    121 H55        -2.7510   -2.5640    4.0520 h1        1 MOL      0.002169
    122 H56        -0.8460   -1.9610    2.9820 ho        1 MOL      0.319314
    123 H57        -1.7240   -0.1230    5.5700 hc        1 MOL      0.054077
    124 H58        -3.4110   -0.7280    5.7110 hc        1 MOL      0.054077
    125 H59        -2.0010   -1.7070    6.2260 hc        1 MOL      0.054077
    126 N11        -4.9650    0.5520    2.7050 n         1 MOL     -0.314176
    127 C39        -6.4850    0.7560    2.5090 c3        1 MOL      0.098939
    128 C40        -6.8450    0.1530    1.1900 c         1 MOL      0.382525
    129 O19        -6.9980    0.8740    0.1660 o         1 MOL     -0.485136
    130 C41        -6.9400    2.2580    2.7070 c3        1 MOL      0.438643
    131 C42        -8.4540    2.5230    2.7900 c3        1 MOL     -0.558178
    132 O20        -6.3390    2.8730    3.8100 oh        1 MOL     -0.668363
    133 H60        -4.4400    1.4130    2.7570 hn        1 MOL      0.211149
    134 H61        -7.0170    0.1150    3.2050 h1        1 MOL      0.040188
    135 H62        -6.5430    2.7740    1.8390 h1        1 MOL     -0.043394
    136 H63        -6.6630    3.7680    3.8370 ho        1 MOL      0.426377
    137 H64        -8.8210    2.3510    3.7950 hc        1 MOL      0.147795
    138 H65        -8.6910    3.5520    2.5250 hc        1 MOL      0.147795
    139 H66        -9.0610    1.8570    2.1680 hc        1 MOL      0.147795
    140 N12        -6.8570   -1.2280    1.0710 n         1 MOL     -0.526147
    141 C43        -6.9110   -2.0080   -0.1760 c3        1 MOL      0.111430
    142 C44        -5.5480   -1.9720   -0.9240 c         1 MOL      0.582674
    143 O21        -4.9850   -0.8790   -1.0210 o         1 MOL     -0.516079
    144 C45        -8.1350   -1.6880   -1.0920 c3        1 MOL     -0.381619
    145 C46        -9.4250   -1.6060   -0.2940 c3        1 MOL      0.104741
    146 C47       -10.5770   -1.5120   -1.2630 c3        1 MOL     -0.164550
    147 C48       -11.8520   -1.6460   -0.4890 c3        1 MOL     -0.003707
    148 N13       -12.1410   -3.0480   -0.1600 n4        1 MOL     -0.286586
    149 H67        -6.6300   -1.7040    1.9280 hn        1 MOL      0.319071
    150 H68        -7.1440   -3.0550    0.0070 h1        1 MOL      0.041796
    151 H69        -8.2470   -2.3940   -1.9200 hc        1 MOL      0.133122
    152 H70        -7.8420   -0.7380   -1.5390 hc        1 MOL      0.133122
    153 H71        -9.2950   -0.7320    0.3440 hc        1 MOL      0.030072
    154 H72        -9.5110   -2.4710    0.3590 hc        1 MOL      0.030072
    155 H73       -10.5540   -2.1810   -2.1210 hc        1 MOL      0.104054
    156 H74       -10.5450   -0.5160   -1.7100 hc        1 MOL      0.104054
    157 H75       -12.7180   -1.2250   -0.9930 hx        1 MOL      0.091737
    158 H76       -11.7390   -1.0500    0.4200 hx        1 MOL      0.091737
    159 H77       -12.9020   -3.1340    0.5090 hn        1 MOL      0.244556
    160 H78       -12.3120   -3.6100   -0.9790 hn        1 MOL      0.244556
    161 H79       -11.3210   -3.5070    0.2320 hn        1 MOL      0.244556
    162 N14        -4.9390   -3.0480   -1.3430 n         1 MOL     -0.473286
    163 C49        -3.6670   -3.0360   -2.1660 c3        1 MOL      0.079012
    164 C50        -2.3810   -2.7390   -1.3150 c         1 MOL      0.317568
    165 O22        -1.7080   -1.7170   -1.6520 o         1 MOL     -0.555830
    166 C51        -3.5120   -4.3930   -2.9050 c3        1 MOL      0.162280
    167 C52        -4.4430   -4.3740   -4.1260 c3        1 MOL     -0.293744
    168 C53        -4.4800   -5.7300   -4.8510 c         1 MOL      0.699820
    169 O23        -5.1770   -6.6370   -4.3830 o         1 MOL     -0.636932
    170 O24        -3.6380   -5.9770   -5.7070 o         1 MOL     -0.636932
    171 H80        -5.4610   -3.9100   -1.3850 hn        1 MOL      0.267612
    172 H81        -3.7480   -2.2550   -2.9190 h1        1 MOL      0.085264
    173 H82        -3.6650   -5.2350   -2.2370 hc        1 MOL      0.035666
    174 H83        -2.5190   -4.6050   -3.2950 hc        1 MOL      0.035666
    175 H84        -4.2880   -3.5070   -4.7660 hc        1 MOL      0.024883
    176 H85        -5.4720   -4.1620   -3.8100 hc        1 MOL      0.024883
    177 N15        -2.0940   -3.3670   -0.1590 n         1 MOL     -0.198424
    178 C54        -2.6140   -4.5900    0.4080 c3        1 MOL     -0.110388
    179 H86        -2.7820   -4.4510    1.4760 h1        1 MOL      0.049874
    180 H87        -3.5570   -4.8430   -0.0780 h1        1 MOL      0.049874
    181 H88        -1.8970   -5.3960    0.2550 h1        1 MOL      0.049874
    182 H89        -1.4120   -2.8720    0.3910 hn        1 MOL      0.319384
    183 Ca1        -0.3430    0.6470   -1.3130 Ca        1 MOL      1.822809
    184 O25        -2.9090    1.0140   -1.2430 oh        1 MOL     -0.911868
    185 H90        -3.4350    0.2160   -1.1830 ho        1 MOL      0.428754
    186 H91        -3.5440    1.7270   -1.2540 ho        1 MOL      0.428754
    187 O26        -1.3300    0.6210   -3.8090 oh        1 MOL     -0.911868
    188 H92        -2.2110    0.3360   -4.0380 ho        1 MOL      0.428754
    189 H93        -0.9490    0.9160   -4.6280 ho        1 MOL      0.428754
    190 O27         1.6720   -0.5010   -2.8910 oh        1 MOL     -0.911868
    191 H94         1.9890    0.1820   -3.4620 ho        1 MOL      0.428754
    192 H95         2.3900   -0.6610   -2.2720 ho        1 MOL      0.428754
@<TRIPOS>BOND
     1    1    2 1   
     2    1    4 1   
     3    1    5 1   
     4    1    6 1   
     5    2    3 2   
     6    2    7 1   
     7    7    8 1   
     8    7   15 1   
     9    8    9 1   
    10    8   11 1   
    11    8   16 1   
    12    9   10 2   
    13    9   19 1   
    14   11   12 1   
    15   11   17 1   
    16   11   18 1   
    17   12   13 1   
    18   12   14 1   
    19   19   20 1   
    20   19   28 1   
    21   20   21 1   
    22   20   23 1   
    23   20   29 1   
    24   21   22 2   
    25   21   41 1   
    26   23   24 1   
    27   23   30 1   
    28   23   31 1   
    29   24   25 1   
    30   24   32 1   
    31   24   33 1   
    32   25   26 1   
    33   25   34 1   
    34   25   35 1   
    35   26   27 1   
    36   26   36 1   
    37   26   37 1   
    38   27   38 1   
    39   27   39 1   
    40   27   40 1   
    41   41   42 1   
    42   41   49 1   
    43   42   43 1   
    44   42   45 1   
    45   42   50 1   
    46   43   44 2   
    47   43   53 1   
    48   45   46 1   
    49   45   51 1   
    50   45   52 1   
    51   46   47 1   
    52   46   48 1   
    53   53   54 1   
    54   53   57 1   
    55   54   55 1   
    56   54   58 1   
    57   54   59 1   
    58   55   56 2   
    59   55   60 1   
    60   60   61 1   
    61   60   68 1   
    62   61   62 1   
    63   61   64 1   
    64   61   69 1   
    65   62   63 2   
    66   62   72 1   
    67   64   65 1   
    68   64   70 1   
    69   64   71 1   
    70   65   66 1   
    71   65   67 1   
    72   72   73 1   
    73   72   76 1   
    74   73   74 1   
    75   73   77 1   
    76   73   78 1   
    77   74   75 2   
    78   74   79 1   
    79   79   80 1   
    80   79   86 1   
    81   80   81 1   
    82   80   83 1   
    83   80   87 1   
    84   81   82 2   
    85   81   93 1   
    86   83   84 1   
    87   83   85 1   
    88   83   88 1   
    89   84   90 1   
    90   84   91 1   
    91   84   92 1   
    92   85   89 1   
    93   93   94 1   
    94   93  101 1   
    95   94   95 1   
    96   94   97 1   
    97   94  102 1   
    98   95   96 2   
    99   95  112 1   
   100   97   98 1   
   101   97   99 1   
   102   97  103 1   
   103   98  100 1   
   104   98  104 1   
   105   98  105 1   
   106   99  106 1   
   107   99  107 1   
   108   99  108 1   
   109  100  109 1   
   110  100  110 1   
   111  100  111 1   
   112  112  113 1   
   113  112  119 1   
   114  113  114 1   
   115  113  116 1   
   116  113  120 1   
   117  114  115 2   
   118  114  126 1   
   119  116  117 1   
   120  116  118 1   
   121  116  121 1   
   122  117  123 1   
   123  117  124 1   
   124  117  125 1   
   125  118  122 1   
   126  126  127 1   
   127  126  133 1   
   128  127  128 1   
   129  127  130 1   
   130  127  134 1   
   131  128  129 2   
   132  128  140 1   
   133  130  131 1   
   134  130  132 1   
   135  130  135 1   
   136  131  137 1   
   137  131  138 1   
   138  131  139 1   
   139  132  136 1   
   140  140  141 1   
   141  140  149 1   
   142  141  142 1   
   143  141  144 1   
   144  141  150 1   
   145  142  143 2   
   146  142  162 1   
   147  144  145 1   
   148  144  151 1   
   149  144  152 1   
   150  145  146 1   
   151  145  153 1   
   152  145  154 1   
   153  146  147 1   
   154  146  155 1   
   155  146  156 1   
   156  147  148 1   
   157  147  157 1   
   158  147  158 1   
   159  148  159 1   
   160  148  160 1   
   161  148  161 1   
   162  162  163 1   
   163  162  171 1   
   164  163  164 1   
   165  163  166 1   
   166  163  172 1   
   167  164  165 2   
   168  164  177 1   
   169  166  167 1   
   170  166  173 1   
   171  166  174 1   
   172  167  168 1   
   173  167  175 1   
   174  167  176 1   
   175  168  169 1   
   176  168  170 1   
   177  177  178 1   
   178  177  182 1   
   179  178  179 1   
   180  178  180 1   
   181  178  181 1   
   182  184  185 1   
   183  184  186 1   
   184  187  188 1   
   185  187  189 1   
   186  190  191 1   
   187  190  192 1   
@<TRIPOS>SUBSTRUCTURE
     1 MOL         1 TEMP              0 ****  ****    0 ROOT
