@<TRIPOS>MOLECULE
MOL
  195   189     1     0     0
SMALL
resp


@<TRIPOS>ATOM
      1 C1         -4.0990   -3.9150   -4.2790 c3        1 MOL     -0.455905
      2 C2         -4.6200   -3.4750   -2.9020 c         1 MOL      0.795770
      3 O1         -3.8250   -3.3320   -1.9970 o         1 MOL     -0.576349
      4 H1         -3.7970   -4.9610   -4.2350 hc        1 MOL      0.106763
      5 H2         -4.8890   -3.7970   -5.0220 hc        1 MOL      0.106763
      6 H3         -3.2430   -3.3010   -4.5580 hc        1 MOL      0.106763
      7 N1         -5.8810   -3.1320   -2.7470 n         1 MOL     -0.800520
      8 C3         -6.4170   -2.1810   -1.7980 c3        1 MOL      0.267402
      9 C4         -5.5280   -0.9440   -1.3880 c         1 MOL      0.332657
     10 O2         -5.3340   -0.5740   -0.2270 o         1 MOL     -0.502305
     11 C5         -6.9170   -2.9270   -0.5110 c3        1 MOL     -0.304918
     12 C6         -6.0600   -4.0870    0.0400 c         1 MOL      0.844725
     13 O3         -6.3930   -5.2640   -0.0840 o         1 MOL     -0.734644
     14 O4         -5.1910   -3.7670    0.8530 o         1 MOL     -0.734644
     15 H4         -6.5370   -3.5450   -3.3950 hn        1 MOL      0.381314
     16 H5         -7.3410   -1.8450   -2.2690 h1        1 MOL      0.075797
     17 H6         -7.9340   -3.2620   -0.7410 hc        1 MOL      0.074585
     18 H7         -7.0650   -2.1960    0.2780 hc        1 MOL      0.074585
     19 N2         -5.1610   -0.1440   -2.4140 n         1 MOL     -0.536548
     20 C7         -4.5210    1.1330   -2.4100 c3        1 MOL      0.305672
     21 C8         -5.4150    2.2900   -1.8270 c         1 MOL      0.284323
     22 O5         -5.8080    3.2460   -2.5820 o         1 MOL     -0.565531
     23 C9         -3.1030    1.2150   -1.8890 c3        1 MOL      0.358589
     24 C10        -2.4480    2.6220   -1.9850 c3        1 MOL     -0.135004
     25 C11        -2.1990    0.2800   -2.6030 c3        1 MOL     -0.302527
     26 C12        -2.0600    3.1640   -3.4250 c3        1 MOL     -0.126732
     27 H8         -5.3490   -0.5660   -3.3200 hn        1 MOL      0.286134
     28 H9         -4.4090    1.5360   -3.4250 h1        1 MOL     -0.039537
     29 H10        -3.1610    0.9820   -0.8270 hc        1 MOL     -0.129397
     30 H11        -1.5380    2.5340   -1.3900 hc        1 MOL      0.042026
     31 H12        -3.0520    3.3170   -1.4250 hc        1 MOL      0.042026
     32 H13        -1.1270    0.4350   -2.4650 hc        1 MOL      0.047487
     33 H14        -2.5510   -0.7070   -2.2840 hc        1 MOL      0.047487
     34 H15        -2.5420    0.3710   -3.6320 hc        1 MOL      0.047487
     35 H16        -1.1960    3.8330   -3.4400 hc        1 MOL      0.019508
     36 H17        -1.8580    2.2840   -4.0280 hc        1 MOL      0.019508
     37 H18        -2.9830    3.6160   -3.7760 hc        1 MOL      0.019508
     38 N3         -5.8680    2.0910   -0.6430 n         1 MOL     -0.105665
     39 C13        -6.8470    2.9730    0.0100 c3        1 MOL      0.032021
     40 C14        -6.4550    4.4730    0.2360 c         1 MOL      0.619059
     41 O6         -7.2450    5.3650   -0.0380 o         1 MOL     -0.574054
     42 C15        -7.2580    2.3360    1.3190 c3        1 MOL     -0.357948
     43 C16        -7.7890    0.8930    1.1700 c         1 MOL      0.820369
     44 O7         -7.5070   -0.0730    1.8910 o         1 MOL     -0.741128
     45 O8         -8.6480    0.6900    0.3190 o         1 MOL     -0.741128
     46 H19        -5.5880    1.2680   -0.1360 hn        1 MOL      0.298098
     47 H20        -7.7730    3.0450   -0.5640 h1        1 MOL      0.039722
     48 H21        -8.0470    2.8690    1.8450 hc        1 MOL      0.092170
     49 H22        -6.3570    2.2650    1.9290 hc        1 MOL      0.092170
     50 N4         -5.1640    4.7690    0.6070 n         1 MOL     -0.600645
     51 C17        -4.2510    3.8630    1.2770 c3        1 MOL      0.105848
     52 C18        -4.4170    3.8520    2.7730 c         1 MOL      0.489233
     53 O9         -5.4350    4.2330    3.2990 o         1 MOL     -0.555214
     54 H23        -4.9190    5.7450    0.4970 hn        1 MOL      0.306169
     55 H24        -3.2350    4.2650    1.1670 h1        1 MOL      0.050910
     56 H25        -4.2460    2.8420    0.9080 h1        1 MOL      0.050910
     57 N5         -3.4610    3.4610    3.5880 n         1 MOL     -0.440519
     58 C19        -2.0590    3.1420    3.2420 c3        1 MOL      0.195711
     59 C20        -1.9770    1.9350    2.2580 c         1 MOL      0.270743
     60 O10        -2.8680    1.1010    2.1580 o         1 MOL     -0.352547
     61 C21        -1.2190    2.8050    4.5190 c3        1 MOL     -0.252123
     62 C22        -1.6960    1.5790    5.2990 c         1 MOL      0.699051
     63 O11        -2.5460    1.6800    6.1560 o         1 MOL     -0.680909
     64 O12        -1.2320    0.4470    5.0040 o         1 MOL     -0.680909
     65 H26        -3.6330    3.3500    4.5800 hn        1 MOL      0.302839
     66 H27        -1.6950    4.0750    2.8000 h1        1 MOL      0.016371
     67 H28        -1.3970    3.6900    5.1450 hc        1 MOL      0.025346
     68 H29        -0.1430    2.7750    4.3960 hc        1 MOL      0.025346
     69 N6         -0.8750    1.6760    1.5170 n         1 MOL     -0.418574
     70 C23         0.3770    2.4590    1.4980 c3        1 MOL     -0.024145
     71 C24         0.3280    3.7170    0.5160 c         1 MOL      0.335483
     72 O13        -0.6210    4.4780    0.4500 o         1 MOL     -0.457862
     73 H30        -0.9400    0.8120    0.9950 hn        1 MOL      0.367669
     74 H31         1.1990    1.7760    1.2530 h1        1 MOL      0.090506
     75 H32         0.5710    2.8760    2.4840 h1        1 MOL      0.090506
     76 N7          1.4620    3.9820   -0.2170 n         1 MOL     -0.259838
     77 C25         1.6520    5.1270   -1.1140 c3        1 MOL     -0.043975
     78 C26         2.2150    4.7190   -2.4620 c         1 MOL      0.527990
     79 O14         2.1600    5.5550   -3.3510 o         1 MOL     -0.515958
     80 C27         2.4430    6.2290   -0.4760 c3        1 MOL      0.248178
     81 C28         1.8130    6.7860    0.8080 c3        1 MOL     -0.115843
     82 C29         2.5220    7.9410    1.4050 c         1 MOL      0.622591
     83 N8          2.4360    8.2330    2.6820 n         1 MOL     -0.749541
     84 O15         3.2680    8.6090    0.7140 o         1 MOL     -0.568790
     85 H33         2.2730    3.4460    0.0560 hn        1 MOL      0.185556
     86 H34         0.6590    5.5150   -1.3120 h1        1 MOL      0.117376
     87 H35         2.5680    7.1050   -1.1100 hc        1 MOL     -0.057882
     88 H36         3.4180    5.8170   -0.2030 hc        1 MOL     -0.057882
     89 H37         1.8430    5.9620    1.5330 hc        1 MOL      0.029226
     90 H38         0.7780    7.0810    0.6470 hc        1 MOL      0.029226
     91 H39         1.7600    7.6490    3.1600 hn        1 MOL      0.346039
     92 H40         2.7420    9.1590    2.9520 hn        1 MOL      0.346039
     93 N9          2.7360    3.4850   -2.5030 n         1 MOL     -0.495073
     94 C30         3.4260    2.9390   -3.6790 c3        1 MOL     -0.049800
     95 C31         4.8100    2.4440   -3.4760 c         1 MOL      0.641540
     96 O16         5.5410    2.3890   -4.4380 o         1 MOL     -0.585656
     97 C32         2.5020    1.9520   -4.4550 c3        1 MOL      0.262235
     98 C33         1.2710    2.6600   -5.0270 c3        1 MOL     -0.281142
     99 C34         2.1040    0.8070   -3.5890 c3        1 MOL     -0.281142
    100 H41         2.4550    2.8220   -1.7890 hn        1 MOL      0.277466
    101 H42         3.4650    3.7890   -4.3680 h1        1 MOL      0.088158
    102 H43         3.1260    1.5960   -5.2870 hc        1 MOL     -0.037710
    103 H44         0.5680    2.5340   -4.2020 hc        1 MOL      0.075039
    104 H45         1.4340    3.7020   -5.2770 hc        1 MOL      0.075039
    105 H46         0.9350    2.0690   -5.8870 hc        1 MOL      0.075039
    106 H47         3.0210    0.2690   -3.3230 hc        1 MOL      0.075039
    107 H48         1.6060    1.1820   -2.6910 hc        1 MOL      0.075039
    108 H49         1.4740    0.1620   -4.1890 hc        1 MOL      0.075039
    109 N10         5.3000    2.1770   -2.2630 n         1 MOL     -0.471930
    110 C35         6.7470    1.9390   -2.0170 c3        1 MOL      0.055353
    111 C36         6.9210    0.9190   -0.8530 c         1 MOL      0.485883
    112 O17         8.0450    0.8090   -0.3390 o         1 MOL     -0.526524
    113 C37         7.5370    3.1810   -1.6750 c3        1 MOL     -0.248024
    114 C38         6.8360    4.1320   -0.6730 c         1 MOL      0.678013
    115 N11         7.4480    5.2700   -0.3730 n         1 MOL     -0.824856
    116 O18         5.7900    3.8710   -0.0090 o         1 MOL     -0.539976
    117 H50         4.6690    2.2330   -1.4700 hn        1 MOL      0.289189
    118 H51         7.1340    1.4030   -2.8880 h1        1 MOL      0.104658
    119 H52         7.5950    3.7500   -2.6040 hc        1 MOL      0.092184
    120 H53         8.5700    3.0010   -1.4080 hc        1 MOL      0.092184
    121 H54         8.2920    5.5850   -0.8230 hn        1 MOL      0.374943
    122 H55         7.0550    5.8440    0.3620 hn        1 MOL      0.374943
    123 N12         5.9020    0.1630   -0.4380 n         1 MOL     -0.367545
    124 C39         5.8840   -0.8680    0.5820 c3        1 MOL     -0.091025
    125 C40         4.5740   -1.7040    0.4310 c         1 MOL      0.531626
    126 O19         3.3490   -1.3370    0.4260 o         1 MOL     -0.443983
    127 C41         5.9900   -0.1510    1.9290 c3        1 MOL     -0.115944
    128 C42         5.7690   -1.0460    3.1170 ca        1 MOL     -0.026883
    129 C43         4.4660   -1.1940    3.6780 ca        1 MOL     -0.131670
    130 C44         6.9330   -1.5900    3.7120 ca        1 MOL     -0.131670
    131 C45         4.2650   -1.8860    4.8460 ca        1 MOL     -0.286367
    132 C46         6.7590   -2.3040    4.9260 ca        1 MOL     -0.286367
    133 C47         5.4920   -2.4580    5.4640 ca        1 MOL      0.414308
    134 O20         5.3670   -3.1650    6.6190 oh        1 MOL     -0.622436
    135 H56         4.9860    0.3500   -0.8200 hn        1 MOL      0.186155
    136 H57         6.6590   -1.6280    0.5280 h1        1 MOL      0.079457
    137 H58         5.3010    0.6950    1.9710 hc        1 MOL      0.098855
    138 H59         6.9720    0.3100    2.0510 hc        1 MOL      0.098855
    139 H60         3.6000   -0.9270    3.0960 ha        1 MOL      0.121504
    140 H61         7.9330   -1.3790    3.3550 ha        1 MOL      0.121504
    141 H62         3.2240   -2.0750    5.0720 ha        1 MOL      0.159843
    142 H63         7.5730   -2.8690    5.3500 ha        1 MOL      0.159843
    143 H64         4.4530   -3.2790    6.8890 ho        1 MOL      0.475832
    144 N13         4.8940   -2.9900    0.5110 n         1 MOL     -0.438299
    145 C48         4.0910   -4.2290    0.5790 c3        1 MOL     -0.106499
    146 C49         2.9190   -4.3430   -0.4510 c         1 MOL      0.617109
    147 O21         1.8500   -4.8410   -0.1390 o         1 MOL     -0.498484
    148 C50         3.6650   -4.5580    2.0510 c3        1 MOL      0.066566
    149 C51         3.0930   -5.9750    2.4720 c3        1 MOL     -0.256395
    150 C52         2.2150   -5.8350    3.7610 c         1 MOL      0.766222
    151 O22         2.7460   -6.1570    4.8510 o         1 MOL     -0.722952
    152 O23         1.0330   -5.4690    3.6340 o         1 MOL     -0.722952
    153 H65         5.8800   -3.2140    0.3980 hn        1 MOL      0.291899
    154 H66         4.8240   -4.9620    0.2460 h1        1 MOL      0.053740
    155 H67         2.8350   -3.8730    2.2250 hc        1 MOL      0.061679
    156 H68         4.4470   -4.1850    2.7050 hc        1 MOL      0.061679
    157 H69         3.9730   -6.6090    2.6260 hc        1 MOL      0.013060
    158 H70         2.5280   -6.2290    1.5810 hc        1 MOL      0.013060
    159 N14         3.1500   -3.8800   -1.6840 n         1 MOL     -0.446614
    160 C53         2.2790   -3.9790   -2.8160 c3        1 MOL     -0.152221
    161 C54         2.7900   -4.6860   -4.1160 c         1 MOL      0.496758
    162 O24         2.0590   -5.0310   -5.0610 o         1 MOL     -0.527022
    163 C55         1.6060   -2.6270   -3.1590 c3        1 MOL      0.157427
    164 C56         0.0850   -2.5970   -3.1760 c3        1 MOL      0.160063
    165 C57        -0.6020   -3.0650   -1.9180 c         1 MOL      0.904751
    166 O25        -1.0270   -4.2210   -1.8700 o         1 MOL     -0.844046
    167 O26        -0.7110   -2.3710   -0.8770 o         1 MOL     -0.844046
    168 H71         4.0670   -3.4730   -1.7580 hn        1 MOL      0.225068
    169 H72         1.4660   -4.6510   -2.5420 h1        1 MOL      0.150355
    170 H73         2.0040   -2.3060   -4.1270 hc        1 MOL     -0.049302
    171 H74         1.9790   -1.8960   -2.4430 hc        1 MOL     -0.049302
    172 H75        -0.3340   -3.0850   -4.0450 hc        1 MOL     -0.075077
    173 H76        -0.1740   -1.5450   -3.2770 hc        1 MOL     -0.075077
    174 N15         4.0790   -4.9340   -4.2090 n         1 MOL     -0.284247
    175 C58         4.8680   -5.7120   -5.1740 c3        1 MOL     -0.062811
    176 H77         5.0560   -6.7070   -4.7700 h1        1 MOL      0.058778
    177 H78         4.3150   -5.7990   -6.1100 h1        1 MOL      0.058778
    178 H79         5.8170   -5.2100   -5.3570 h1        1 MOL      0.058778
    179 H80         4.6380   -4.6600   -3.4150 hn        1 MOL      0.216407
    180 Ca1        -2.5350   -3.6120    0.3660 Ca        1 MOL      1.755287
    181 O27        -3.0240   -1.0340    0.8480 oh        1 MOL     -0.858454
    182 H81        -2.7260   -0.3230    1.4250 ho        1 MOL      0.413340
    183 H82        -3.9320   -0.7990    0.6510 ho        1 MOL      0.413340
    184 O28        -2.0540   -2.7980    2.9040 oh        1 MOL     -0.858454
    185 H83        -2.4150   -2.0800    3.4370 ho        1 MOL      0.413340
    186 H84        -1.2170   -3.0030    3.3180 ho        1 MOL      0.413340
    187 O29        -0.2970   -4.5270    1.3570 oh        1 MOL     -0.858454
    188 H85         0.4470   -4.4740    0.7560 ho        1 MOL      0.413340
    189 H86         0.0860   -4.7320    2.2020 ho        1 MOL      0.413340
    190 O30        -2.3040   -6.1950   -1.0630 oh        1 MOL     -0.858454
    191 H87        -1.9970   -5.5470   -1.6940 ho        1 MOL      0.413340
    192 H88        -1.4940   -6.5750   -0.6880 ho        1 MOL      0.413340
    193 O31        -3.0730   -5.7430    1.9050 oh        1 MOL     -0.858454
    194 H89        -2.4550   -5.7110    2.6280 ho        1 MOL      0.413340
    195 H90        -3.5340   -6.5720    2.0230 ho        1 MOL      0.413340
@<TRIPOS>BOND
     1    1    2 1   
     2    1    4 1   
     3    1    5 1   
     4    1    6 1   
     5    2    3 2   
     6    2    7 1   
     7    7    8 1   
     8    7   15 1   
     9    8    9 1   
    10    8   11 1   
    11    8   16 1   
    12    9   10 2   
    13    9   19 1   
    14   11   12 1   
    15   11   17 1   
    16   11   18 1   
    17   12   13 1   
    18   12   14 1   
    19   19   20 1   
    20   19   27 1   
    21   20   21 1   
    22   20   23 1   
    23   20   28 1   
    24   21   22 2   
    25   21   38 1   
    26   23   24 1   
    27   23   25 1   
    28   23   29 1   
    29   24   26 1   
    30   24   30 1   
    31   24   31 1   
    32   25   32 1   
    33   25   33 1   
    34   25   34 1   
    35   26   35 1   
    36   26   36 1   
    37   26   37 1   
    38   38   39 1   
    39   38   46 1   
    40   39   40 1   
    41   39   42 1   
    42   39   47 1   
    43   40   41 2   
    44   40   50 1   
    45   42   43 1   
    46   42   48 1   
    47   42   49 1   
    48   43   44 1   
    49   43   45 1   
    50   50   51 1   
    51   50   54 1   
    52   51   52 1   
    53   51   55 1   
    54   51   56 1   
    55   52   53 2   
    56   52   57 1   
    57   57   58 1   
    58   57   65 1   
    59   58   59 1   
    60   58   61 1   
    61   58   66 1   
    62   59   60 2   
    63   59   69 1   
    64   61   62 1   
    65   61   67 1   
    66   61   68 1   
    67   62   63 1   
    68   62   64 1   
    69   69   70 1   
    70   69   73 1   
    71   70   71 1   
    72   70   74 1   
    73   70   75 1   
    74   71   72 2   
    75   71   76 1   
    76   76   77 1   
    77   76   85 1   
    78   77   78 1   
    79   77   80 1   
    80   77   86 1   
    81   78   79 2   
    82   78   93 1   
    83   80   81 1   
    84   80   87 1   
    85   80   88 1   
    86   81   82 1   
    87   81   89 1   
    88   81   90 1   
    89   82   83 1   
    90   82   84 2   
    91   83   91 1   
    92   83   92 1   
    93   93   94 1   
    94   93  100 1   
    95   94   95 1   
    96   94   97 1   
    97   94  101 1   
    98   95   96 2   
    99   95  109 1   
   100   97   98 1   
   101   97   99 1   
   102   97  102 1   
   103   98  103 1   
   104   98  104 1   
   105   98  105 1   
   106   99  106 1   
   107   99  107 1   
   108   99  108 1   
   109  109  110 1   
   110  109  117 1   
   111  110  111 1   
   112  110  113 1   
   113  110  118 1   
   114  111  112 2   
   115  111  123 1   
   116  113  114 1   
   117  113  119 1   
   118  113  120 1   
   119  114  115 1   
   120  114  116 2   
   121  115  121 1   
   122  115  122 1   
   123  123  124 1   
   124  123  135 1   
   125  124  125 1   
   126  124  127 1   
   127  124  136 1   
   128  125  126 2   
   129  125  144 1   
   130  127  128 1   
   131  127  137 1   
   132  127  138 1   
   133  128  129 ar  
   134  128  130 ar  
   135  129  131 ar  
   136  129  139 1   
   137  130  132 ar  
   138  130  140 1   
   139  131  133 ar  
   140  131  141 1   
   141  132  133 ar  
   142  132  142 1   
   143  133  134 1   
   144  134  143 1   
   145  144  145 1   
   146  144  153 1   
   147  145  146 1   
   148  145  148 1   
   149  145  154 1   
   150  146  147 2   
   151  146  159 1   
   152  148  149 1   
   153  148  155 1   
   154  148  156 1   
   155  149  150 1   
   156  149  157 1   
   157  149  158 1   
   158  150  151 1   
   159  150  152 1   
   160  159  160 1   
   161  159  168 1   
   162  160  161 1   
   163  160  163 1   
   164  160  169 1   
   165  161  162 2   
   166  161  174 1   
   167  163  164 1   
   168  163  170 1   
   169  163  171 1   
   170  164  165 1   
   171  164  172 1   
   172  164  173 1   
   173  165  166 1   
   174  165  167 1   
   175  174  175 1   
   176  174  179 1   
   177  175  176 1   
   178  175  177 1   
   179  175  178 1   
   180  181  182 1   
   181  181  183 1   
   182  184  185 1   
   183  184  186 1   
   184  187  188 1   
   185  187  189 1   
   186  190  191 1   
   187  190  192 1   
   188  193  194 1   
   189  193  195 1   
@<TRIPOS>SUBSTRUCTURE
     1 MOL         1 TEMP              0 ****  ****    0 ROOT
