@<TRIPOS>MOLECULE
MOL
  188   182     1     0     0
SMALL
resp


@<TRIPOS>ATOM
      1 C1          3.8730    4.4100    2.1800 c3        1 MOL     -0.508775
      2 C2          5.0340    3.7390    1.3380 c         1 MOL      0.659778
      3 O1          4.8570    2.7560    0.6390 o         1 MOL     -0.465100
      4 H1          3.4070    3.6580    2.8180 hc        1 MOL      0.123516
      5 H2          4.2860    5.2060    2.7990 hc        1 MOL      0.123516
      6 H3          3.1260    4.8250    1.5040 hc        1 MOL      0.123516
      7 N1          6.2350    4.3500    1.4890 n         1 MOL     -0.478015
      8 C3          7.6270    3.8440    1.3010 c3        1 MOL     -0.058005
      9 C4          7.8380    2.5130    2.0930 c         1 MOL      0.504234
     10 O2          8.9310    1.9950    1.9730 o         1 MOL     -0.504960
     11 C5          8.1510    3.7600   -0.1630 c3        1 MOL     -0.129339
     12 C6          7.6180    4.8670   -1.0920 c         1 MOL      0.647249
     13 O3          6.9290    4.5870   -2.1420 o         1 MOL     -0.632218
     14 O4          7.9450    6.0570   -0.7910 o         1 MOL     -0.632218
     15 H4          6.2090    5.2230    2.0060 hn        1 MOL      0.302272
     16 H5          8.1990    4.6580    1.7470 h1        1 MOL      0.090130
     17 H6          7.7790    2.7950   -0.5220 hc        1 MOL      0.068179
     18 H7          9.2410    3.7210   -0.2260 hc        1 MOL      0.068179
     19 N2          6.8170    2.0510    2.8110 n         1 MOL     -0.373331
     20 C7          6.6640    0.7820    3.4480 c3        1 MOL      0.054117
     21 C8          6.2750   -0.3280    2.5140 c         1 MOL      0.550969
     22 O5          6.5960   -1.4790    2.7660 o         1 MOL     -0.607212
     23 C9          5.7700    0.9820    4.7220 c3        1 MOL     -0.147443
     24 C10         5.4420   -0.3570    5.4550 c3        1 MOL      0.038721
     25 C11         4.6940    0.0100    6.7800 c3        1 MOL      0.121890
     26 C12         3.9670   -1.1380    7.4460 c3        1 MOL     -0.014201
     27 N3          3.8830   -0.9720    8.9180 n4        1 MOL     -0.248395
     28 H8          6.0100    2.6550    2.8560 hn        1 MOL      0.174406
     29 H9          7.6080    0.4400    3.8680 h1        1 MOL      0.087374
     30 H10         4.7760    1.3950    4.5470 hc        1 MOL      0.058703
     31 H11         6.2560    1.6940    5.3820 hc        1 MOL      0.058703
     32 H12         6.3620   -0.8710    5.7030 hc        1 MOL      0.015734
     33 H13         4.8990   -1.0880    4.8540 hc        1 MOL      0.015734
     34 H14         4.0350    0.8590    6.6200 hc        1 MOL     -0.024708
     35 H15         5.5260    0.3140    7.4030 hc        1 MOL     -0.024708
     36 H16         4.5000   -2.0660    7.2490 hx        1 MOL      0.094513
     37 H17         3.0560   -1.1630    6.8420 hx        1 MOL      0.094513
     38 H18         3.2990   -0.2270    9.2770 hn        1 MOL      0.236688
     39 H19         3.4730   -1.7820    9.3650 hn        1 MOL      0.236688
     40 H20         4.7950   -0.7890    9.3320 hn        1 MOL      0.236688
     41 N4          5.5900   -0.0530    1.3930 n         1 MOL     -0.242900
     42 C13         5.0310   -1.0500    0.4640 c3        1 MOL     -0.063692
     43 C14         5.5990   -0.8680   -0.9450 c         1 MOL      0.576024
     44 O6          5.7810    0.2350   -1.3910 o         1 MOL     -0.471366
     45 C15         3.4880   -0.9770    0.4770 c3        1 MOL     -0.111910
     46 C16         2.8970   -2.1860   -0.2770 c         1 MOL      0.638309
     47 O7          2.7570   -3.2620    0.3910 o         1 MOL     -0.662851
     48 O8          2.6510   -1.9940   -1.4670 o         1 MOL     -0.662851
     49 H21         5.3650    0.9290    1.2960 hn        1 MOL      0.156067
     50 H22         5.2190   -2.0780    0.7530 h1        1 MOL      0.096705
     51 H23         3.1210   -0.0140    0.1160 hc        1 MOL      0.028387
     52 H24         3.1340   -1.1360    1.5010 hc        1 MOL      0.028387
     53 N5          5.7370   -1.9560   -1.6860 n         1 MOL     -0.496807
     54 C17         6.2400   -1.9860   -3.0290 c3        1 MOL     -0.142684
     55 C18         5.2360   -1.3950   -4.0700 c         1 MOL      0.557174
     56 O9          5.6650   -1.1750   -5.1990 o         1 MOL     -0.574419
     57 H25         5.4410   -2.8370   -1.2900 hn        1 MOL      0.345635
     58 H26         6.3600   -3.0120   -3.3810 h1        1 MOL      0.105646
     59 H27         7.2350   -1.5350   -3.0140 h1        1 MOL      0.105646
     60 N6          3.9670   -1.1620   -3.7430 n         1 MOL     -0.336703
     61 C19         2.9400   -0.4690   -4.6250 c3        1 MOL     -0.015936
     62 C20         2.6620    0.9600   -4.0430 c         1 MOL      0.602964
     63 O10         2.4260    1.9450   -4.8100 o         1 MOL     -0.566983
     64 C21         1.5640   -1.1520   -4.6160 c3        1 MOL     -0.430149
     65 C22         1.5900   -2.6040   -5.1410 c         1 MOL      0.892733
     66 N7          1.6250   -2.8160   -6.4670 n         1 MOL     -0.905359
     67 O11         1.6130   -3.5020   -4.3370 o         1 MOL     -0.692951
     68 H28         3.7050   -1.5140   -2.8260 hn        1 MOL      0.205845
     69 H29         3.2740   -0.3800   -5.6530 h1        1 MOL      0.099066
     70 H30         0.8530   -0.6060   -5.2280 hc        1 MOL      0.135454
     71 H31         1.2000   -1.1750   -3.5870 hc        1 MOL      0.135454
     72 H32         1.9060   -2.0610   -7.0710 hn        1 MOL      0.396268
     73 H33         1.6370   -3.7360   -6.8880 hn        1 MOL      0.396268
     74 N8          2.6530    1.0750   -2.7040 n         1 MOL     -0.339559
     75 C23         2.2470    2.2400   -1.9420 c3        1 MOL     -0.045087
     76 C24         0.7700    2.3000   -1.6510 c         1 MOL      0.614357
     77 O12         0.0280    1.3420   -2.0140 o         1 MOL     -0.515005
     78 H34         2.6280    0.2190   -2.1630 hn        1 MOL      0.270402
     79 H35         2.5220    3.2090   -2.3740 h1        1 MOL      0.106098
     80 H36         2.8320    2.1150   -1.0230 h1        1 MOL      0.106098
     81 N9          0.2800    3.4630   -1.1470 n         1 MOL     -0.730174
     82 C25        -1.0720    3.8890   -0.9720 c3        1 MOL      0.593131
     83 C26        -1.8350    2.9570   -0.0040 c         1 MOL      0.244815
     84 O13        -1.2180    2.1400    0.7080 o         1 MOL     -0.447228
     85 C27        -1.2480    5.4160   -0.8320 c3        1 MOL     -0.286289
     86 C28        -2.6920    5.8490   -0.8530 ca        1 MOL      0.126531
     87 C29        -3.4750    5.6120   -1.9990 ca        1 MOL     -0.239090
     88 C30        -3.2960    6.5110    0.2810 ca        1 MOL     -0.239090
     89 C31        -4.9070    5.9310   -2.0020 ca        1 MOL     -0.143914
     90 C32        -4.6500    6.8120    0.2510 ca        1 MOL     -0.143914
     91 C33        -5.4210    6.5710   -0.9460 ca        1 MOL      0.267143
     92 O14        -6.7480    6.8980   -0.9970 oh        1 MOL     -0.552177
     93 H37         0.8860    4.2800   -1.0960 hn        1 MOL      0.302716
     94 H38        -1.5800    3.7940   -1.9340 h1        1 MOL     -0.064868
     95 H39        -0.7140    5.9080   -1.6420 hc        1 MOL      0.095708
     96 H40        -0.7790    5.6060    0.1370 hc        1 MOL      0.095708
     97 H41        -3.1170    5.0150   -2.8270 ha        1 MOL      0.169717
     98 H42        -2.6560    6.6020    1.1440 ha        1 MOL      0.169717
     99 H43        -5.5270    5.7220   -2.8570 ha        1 MOL      0.124381
    100 H44        -5.1060    7.3430    1.0670 ha        1 MOL      0.124381
    101 H45        -7.0750    7.5450   -0.3670 ho        1 MOL      0.414246
    102 N10        -3.1940    3.0840    0.0600 n         1 MOL     -0.269839
    103 C34        -4.0560    2.1550    0.7970 c3        1 MOL      0.001493
    104 C35        -4.9440    1.3330   -0.1930 c         1 MOL      0.549429
    105 O15        -5.0580    0.1290    0.0620 o         1 MOL     -0.441484
    106 C36        -4.9990    2.9820    1.7260 c3        1 MOL      0.098507
    107 C37        -4.1880    3.5990    2.9280 c3        1 MOL      0.072500
    108 C38        -6.2190    2.3020    2.2470 c3        1 MOL     -0.620444
    109 C39        -5.0110    4.5130    3.8370 c3        1 MOL     -0.180104
    110 H46        -3.5680    3.8190   -0.5110 hn        1 MOL      0.099783
    111 H47        -3.5100    1.3890    1.3460 h1        1 MOL      0.111700
    112 H48        -5.3730    3.7770    1.0910 hc        1 MOL      0.017313
    113 H49        -3.5150    4.3340    2.4770 hc        1 MOL      0.017605
    114 H50        -3.6980    2.7470    3.4110 hc        1 MOL      0.017605
    115 H51        -6.8340    1.9010    1.4440 hc        1 MOL      0.164333
    116 H52        -5.9940    1.5680    3.0220 hc        1 MOL      0.164333
    117 H53        -6.8410    3.0260    2.7720 hc        1 MOL      0.164333
    118 H54        -4.3330    5.0160    4.5230 hc        1 MOL      0.034364
    119 H55        -5.5370    5.2550    3.2350 hc        1 MOL      0.034364
    120 H56        -5.7170    3.9680    4.4560 hc        1 MOL      0.034364
    121 N11        -5.4130    1.9180   -1.3100 n         1 MOL     -0.506967
    122 C40        -6.1420    1.1730   -2.3940 c3        1 MOL      0.245585
    123 C41        -7.2600    0.2410   -1.8950 c         1 MOL      0.121481
    124 O16        -7.5640   -0.7320   -2.6420 o         1 MOL     -0.449194
    125 C42        -6.8310    2.1880   -3.3040 c3        1 MOL      0.193736
    126 O17        -5.9350    3.2270   -3.6010 oh        1 MOL     -0.582115
    127 H57        -5.2830    2.9100   -1.4380 hn        1 MOL      0.282479
    128 H58        -5.4220    0.5660   -2.9340 h1        1 MOL      0.078098
    129 H59        -7.7180    2.5500   -2.7840 h1        1 MOL      0.000021
    130 H60        -7.2140    1.6170   -4.1590 h1        1 MOL      0.000021
    131 H61        -6.4400    3.9300   -4.0110 ho        1 MOL      0.410928
    132 N12        -7.9530    0.6540   -0.7750 n         1 MOL     -0.018827
    133 C43        -8.9670   -0.0940    0.0140 c3        1 MOL      0.094382
    134 C44        -8.4600   -1.4840    0.6010 c         1 MOL      0.618835
    135 O18        -9.2490   -2.3280    0.9910 o         1 MOL     -0.573798
    136 C45       -10.2080   -0.0810   -0.7950 c3        1 MOL     -0.402174
    137 H62        -7.9760    1.6500   -0.5880 hn        1 MOL      0.177438
    138 H63        -9.1900    0.4540    0.9190 h1        1 MOL      0.025898
    139 H64       -10.1200   -0.8360   -1.5800 hc        1 MOL      0.112905
    140 H65       -11.0780   -0.4720   -0.2620 hc        1 MOL      0.112905
    141 H66       -10.4470    0.8940   -1.2050 hc        1 MOL      0.112905
    142 N13        -7.1690   -1.7020    0.6760 n         1 MOL     -0.540190
    143 C46        -6.5410   -3.0500    0.7410 c3        1 MOL      0.276784
    144 C47        -5.3120   -3.0200    1.6330 c         1 MOL      0.422093
    145 O19        -4.7650   -1.9580    1.9900 o         1 MOL     -0.446516
    146 C48        -6.1560   -3.5160   -0.6430 c3        1 MOL     -0.281410
    147 H67        -6.6030   -0.8880    0.4610 hn        1 MOL      0.123180
    148 H68        -7.3640   -3.6780    1.1140 h1        1 MOL      0.033698
    149 H69        -7.0350   -3.7050   -1.2570 hc        1 MOL      0.093166
    150 H70        -5.5810   -2.7620   -1.1730 hc        1 MOL      0.093166
    151 H71        -5.5060   -4.3880   -0.5680 hc        1 MOL      0.093166
    152 N14        -4.9300   -4.2190    2.1230 n         1 MOL     -0.308325
    153 C49        -3.7170   -4.5520    2.9740 c3        1 MOL      0.143170
    154 C50        -3.8440   -3.7930    4.3610 c         1 MOL      0.264161
    155 O20        -2.9120   -3.2700    5.0150 o         1 MOL     -0.492117
    156 C51        -2.3870   -4.4010    2.1860 c3        1 MOL      0.113966
    157 C52        -2.2740   -5.2420    0.9560 c3        1 MOL     -0.061919
    158 C53        -0.7870   -5.5010    0.6280 c         1 MOL      0.770832
    159 O21        -0.1060   -4.6170    0.0430 o         1 MOL     -0.740092
    160 O22        -0.3270   -6.5950    0.9380 o         1 MOL     -0.740092
    161 H72        -5.6010   -4.9530    1.9740 hn        1 MOL      0.187652
    162 H73        -3.8310   -5.5890    3.2810 h1        1 MOL      0.043890
    163 H74        -1.6750   -4.7920    2.9110 hc        1 MOL      0.000570
    164 H75        -2.0890   -3.3910    1.9290 hc        1 MOL      0.000570
    165 H76        -2.8540   -4.8310    0.1290 hc        1 MOL     -0.055397
    166 H77        -2.7660   -6.1900    1.1980 hc        1 MOL     -0.055397
    167 N15        -5.1020   -3.5800    4.7640 n         1 MOL     -0.179569
    168 C54        -5.5770   -2.7900    5.9300 c3        1 MOL     -0.055385
    169 H78        -6.1900   -3.4230    6.5720 h1        1 MOL      0.065340
    170 H79        -4.7200   -2.4230    6.4950 h1        1 MOL      0.065340
    171 H80        -6.1710   -1.9460    5.5800 h1        1 MOL      0.065340
    172 H81        -5.8050   -4.0610    4.2130 hn        1 MOL      0.158046
    173 Ca1         1.7590   -4.4300   -1.8530 Ca        1 MOL      1.764490
    174 O23         2.8140   -6.2340   -3.5980 oh        1 MOL     -0.861319
    175 H82         2.5410   -7.1470   -3.5810 ho        1 MOL      0.421908
    176 H83         3.1890   -6.1050   -4.4650 ho        1 MOL      0.421908
    177 O24        -0.1770   -2.7980   -2.1100 oh        1 MOL     -0.861319
    178 H84        -0.1620   -2.2650   -1.3200 ho        1 MOL      0.421908
    179 H85        -1.0920   -3.0270   -2.2240 ho        1 MOL      0.421908
    180 O25        -0.0340   -6.3500   -2.6870 oh        1 MOL     -0.861319
    181 H86         0.0290   -7.0760   -3.3060 ho        1 MOL      0.421908
    182 H87        -0.7980   -5.8570   -2.9800 ho        1 MOL      0.421908
    183 O26         2.2510   -6.2970    0.0860 oh        1 MOL     -0.861319
    184 H88         2.8060   -6.9260    0.5620 ho        1 MOL      0.421908
    185 H89         1.3540   -6.5330    0.3280 ho        1 MOL      0.421908
    186 O27         4.5620   -4.7350   -1.6550 oh        1 MOL     -0.861319
    187 H90         4.9450   -5.4320   -1.1260 ho        1 MOL      0.421908
    188 H91         4.6720   -5.0230   -2.5530 ho        1 MOL      0.421908
@<TRIPOS>BOND
     1    1    2 1   
     2    1    4 1   
     3    1    5 1   
     4    1    6 1   
     5    2    3 2   
     6    2    7 1   
     7    7    8 1   
     8    7   15 1   
     9    8    9 1   
    10    8   11 1   
    11    8   16 1   
    12    9   10 2   
    13    9   19 1   
    14   11   12 1   
    15   11   17 1   
    16   11   18 1   
    17   12   13 1   
    18   12   14 1   
    19   19   20 1   
    20   19   28 1   
    21   20   21 1   
    22   20   23 1   
    23   20   29 1   
    24   21   22 2   
    25   21   41 1   
    26   23   24 1   
    27   23   30 1   
    28   23   31 1   
    29   24   25 1   
    30   24   32 1   
    31   24   33 1   
    32   25   26 1   
    33   25   34 1   
    34   25   35 1   
    35   26   27 1   
    36   26   36 1   
    37   26   37 1   
    38   27   38 1   
    39   27   39 1   
    40   27   40 1   
    41   41   42 1   
    42   41   49 1   
    43   42   43 1   
    44   42   45 1   
    45   42   50 1   
    46   43   44 2   
    47   43   53 1   
    48   45   46 1   
    49   45   51 1   
    50   45   52 1   
    51   46   47 1   
    52   46   48 1   
    53   53   54 1   
    54   53   57 1   
    55   54   55 1   
    56   54   58 1   
    57   54   59 1   
    58   55   56 2   
    59   55   60 1   
    60   60   61 1   
    61   60   68 1   
    62   61   62 1   
    63   61   64 1   
    64   61   69 1   
    65   62   63 2   
    66   62   74 1   
    67   64   65 1   
    68   64   70 1   
    69   64   71 1   
    70   65   66 1   
    71   65   67 2   
    72   66   72 1   
    73   66   73 1   
    74   74   75 1   
    75   74   78 1   
    76   75   76 1   
    77   75   79 1   
    78   75   80 1   
    79   76   77 2   
    80   76   81 1   
    81   81   82 1   
    82   81   93 1   
    83   82   83 1   
    84   82   85 1   
    85   82   94 1   
    86   83   84 2   
    87   83  102 1   
    88   85   86 1   
    89   85   95 1   
    90   85   96 1   
    91   86   87 ar  
    92   86   88 ar  
    93   87   89 ar  
    94   87   97 1   
    95   88   90 ar  
    96   88   98 1   
    97   89   91 ar  
    98   89   99 1   
    99   90   91 ar  
   100   90  100 1   
   101   91   92 1   
   102   92  101 1   
   103  102  103 1   
   104  102  110 1   
   105  103  104 1   
   106  103  106 1   
   107  103  111 1   
   108  104  105 2   
   109  104  121 1   
   110  106  107 1   
   111  106  108 1   
   112  106  112 1   
   113  107  109 1   
   114  107  113 1   
   115  107  114 1   
   116  108  115 1   
   117  108  116 1   
   118  108  117 1   
   119  109  118 1   
   120  109  119 1   
   121  109  120 1   
   122  121  122 1   
   123  121  127 1   
   124  122  123 1   
   125  122  125 1   
   126  122  128 1   
   127  123  124 2   
   128  123  132 1   
   129  125  126 1   
   130  125  129 1   
   131  125  130 1   
   132  126  131 1   
   133  132  133 1   
   134  132  137 1   
   135  133  134 1   
   136  133  136 1   
   137  133  138 1   
   138  134  135 2   
   139  134  142 1   
   140  136  139 1   
   141  136  140 1   
   142  136  141 1   
   143  142  143 1   
   144  142  147 1   
   145  143  144 1   
   146  143  146 1   
   147  143  148 1   
   148  144  145 2   
   149  144  152 1   
   150  146  149 1   
   151  146  150 1   
   152  146  151 1   
   153  152  153 1   
   154  152  161 1   
   155  153  154 1   
   156  153  156 1   
   157  153  162 1   
   158  154  155 2   
   159  154  167 1   
   160  156  157 1   
   161  156  163 1   
   162  156  164 1   
   163  157  158 1   
   164  157  165 1   
   165  157  166 1   
   166  158  159 1   
   167  158  160 1   
   168  167  168 1   
   169  167  172 1   
   170  168  169 1   
   171  168  170 1   
   172  168  171 1   
   173  174  175 1   
   174  174  176 1   
   175  177  178 1   
   176  177  179 1   
   177  180  181 1   
   178  180  182 1   
   179  183  184 1   
   180  183  185 1   
   181  186  187 1   
   182  186  188 1   
@<TRIPOS>SUBSTRUCTURE
     1 MOL         1 TEMP              0 ****  ****    0 ROOT
