@<TRIPOS>MOLECULE
MOL
  189   185     1     0     0
SMALL
resp


@<TRIPOS>ATOM
      1 C1          4.1820    3.9460   -3.8710 c3        1 MOL     -0.514956
      2 C2          5.0420    3.1480   -2.8660 c         1 MOL      0.770969
      3 O1          4.5610    2.9190   -1.7280 o         1 MOL     -0.570529
      4 H1          3.4410    3.2840   -4.3200 hc        1 MOL      0.133066
      5 H2          3.6750    4.7580   -3.3510 hc        1 MOL      0.133066
      6 H3          4.8220    4.3570   -4.6510 hc        1 MOL      0.133066
      7 N1          6.2730    2.7630   -3.2320 n         1 MOL     -0.652104
      8 C3          7.0550    1.7340   -2.5230 c3        1 MOL      0.292857
      9 C4          6.2770    0.4850   -1.9890 c         1 MOL      0.327156
     10 O2          5.9120    0.3370   -0.8170 o         1 MOL     -0.435951
     11 C5          8.0170    2.4110   -1.5050 c3        1 MOL     -0.064357
     12 C6          7.4240    3.3150   -0.4040 c         1 MOL      0.613236
     13 O3          6.7170    2.7510    0.5080 o         1 MOL     -0.677956
     14 O4          7.5370    4.5840   -0.3960 o         1 MOL     -0.677956
     15 H4          6.6970    3.1240   -4.0750 hn        1 MOL      0.326373
     16 H5          7.7480    1.2390   -3.2070 h1        1 MOL     -0.015350
     17 H6          8.7660    2.9940   -2.0390 hc        1 MOL     -0.001829
     18 H7          8.5930    1.6580   -0.9780 hc        1 MOL     -0.001829
     19 N2          5.8090   -0.3780   -2.9260 n         1 MOL     -0.430935
     20 C7          5.3040   -1.7370   -2.8420 c3        1 MOL      0.072525
     21 C8          6.0740   -2.7880   -2.0780 c         1 MOL      0.374280
     22 O5          6.2890   -3.8580   -2.5880 o         1 MOL     -0.538780
     23 C9          3.7990   -1.7830   -2.3660 c3        1 MOL      0.045705
     24 C10         3.2040   -3.2120   -2.5370 c3        1 MOL      0.213570
     25 C11         2.9230   -0.7560   -3.1390 c3        1 MOL     -0.391977
     26 C12         3.1870   -3.8640   -3.9120 c3        1 MOL     -0.040522
     27 H8          5.8210    0.0090   -3.8540 hn        1 MOL      0.251141
     28 H9          5.2090   -2.0080   -3.8930 h1        1 MOL      0.070469
     29 H10         3.8350   -1.5760   -1.2980 hc        1 MOL     -0.152005
     30 H11         2.2000   -3.1800   -2.1030 hc        1 MOL     -0.035675
     31 H12         3.6890   -3.9670   -1.9090 hc        1 MOL     -0.035675
     32 H13         3.1780    0.2400   -2.7830 hc        1 MOL      0.098098
     33 H14         2.9490   -0.7480   -4.2280 hc        1 MOL      0.098098
     34 H15         1.8630   -0.7990   -2.8890 hc        1 MOL      0.098098
     35 H16         4.1840   -3.9070   -4.3410 hc        1 MOL     -0.014777
     36 H17         2.7280   -4.8490   -3.9200 hc        1 MOL     -0.014777
     37 H18         2.6150   -3.2590   -4.6180 hc        1 MOL     -0.014777
     38 N3          6.5810   -2.3980   -0.9070 n         1 MOL     -0.148152
     39 C13         7.3840   -3.2520   -0.0460 c3        1 MOL      0.073202
     40 C14         6.6230   -4.4360    0.6600 c         1 MOL      0.710765
     41 O6          7.0440   -5.6050    0.5040 o         1 MOL     -0.601128
     42 C15         8.0230   -2.4600    1.0840 c3        1 MOL     -0.140685
     43 C16         9.0780   -3.1080    1.9260 c         1 MOL      0.630594
     44 O7          9.6780   -4.1080    1.4900 o         1 MOL     -0.715755
     45 O8          9.2720   -2.7060    3.1260 o         1 MOL     -0.715755
     46 H19         6.3350   -1.5000   -0.5400 hn        1 MOL      0.177153
     47 H20         8.1990   -3.6970   -0.6200 h1        1 MOL      0.019142
     48 H21         7.2090   -2.1810    1.7550 hc        1 MOL      0.019249
     49 H22         8.4540   -1.5680    0.6430 hc        1 MOL      0.019249
     50 N4          5.4080   -4.3170    1.2290 n         1 MOL     -0.650378
     51 C17         4.4910   -3.1150    1.4300 c3        1 MOL      0.375716
     52 C18         4.5130   -2.5390    2.8740 c         1 MOL      0.354591
     53 O9          5.5220   -2.7510    3.5860 o         1 MOL     -0.490454
     54 H23         5.0440   -5.2240    1.4800 hn        1 MOL      0.288866
     55 H24         3.4590   -3.3950    1.2050 h1        1 MOL     -0.044507
     56 H25         4.8240   -2.3480    0.7310 h1        1 MOL     -0.044507
     57 N5          3.5040   -1.8410    3.3670 n         1 MOL     -0.413484
     58 C19         2.2060   -1.4790    2.8550 c3        1 MOL      0.162032
     59 C20         2.2280   -0.9900    1.3550 c         1 MOL      0.049046
     60 O10         3.2010   -0.5770    0.7320 o         1 MOL     -0.058952
     61 C21         1.6530   -0.4150    3.7970 c3        1 MOL     -0.279681
     62 C22         2.5390    0.8020    3.8110 c         1 MOL      0.775693
     63 O11         2.6040    1.5130    2.7610 o         1 MOL     -0.677235
     64 O12         3.1480    0.9880    4.8760 o         1 MOL     -0.677235
     65 H26         3.7800   -1.5690    4.2910 hn        1 MOL      0.297141
     66 H27         1.5420   -2.3410    2.9090 h1        1 MOL      0.017732
     67 H28         1.5930   -0.8080    4.8120 hc        1 MOL      0.061572
     68 H29         0.6740   -0.0040    3.5450 hc        1 MOL      0.061572
     69 N6          1.0710   -0.9020    0.7060 n         1 MOL     -0.148375
     70 C23        -0.2510   -1.2570    1.1610 c3        1 MOL     -0.032724
     71 C24        -0.8130   -2.5230    0.4480 c         1 MOL      0.623781
     72 O13        -0.2840   -2.9300   -0.5640 o         1 MOL     -0.521183
     73 H30         1.1820   -0.6850   -0.2710 hn        1 MOL      0.224864
     74 H31        -0.9360   -0.4230    0.9410 h1        1 MOL      0.036704
     75 H32        -0.2020   -1.5390    2.2090 h1        1 MOL      0.036704
     76 N7         -1.8840   -3.1090    1.0250 n         1 MOL     -0.533965
     77 C25        -2.5310   -4.3470    0.4480 c3        1 MOL     -0.006519
     78 C26        -3.4670   -4.1680   -0.7890 c         1 MOL      0.415838
     79 O14        -3.8110   -5.2350   -1.3010 o         1 MOL     -0.514685
     80 C27        -3.2480   -5.1620    1.5870 c3        1 MOL     -0.086038
     81 C28        -4.3980   -4.4820    2.3190 c3        1 MOL     -0.194047
     82 C29        -5.5860   -3.9910    1.4850 c         1 MOL      0.310940
     83 N8         -6.4950   -4.9080    1.1610 n         1 MOL     -0.539138
     84 O15        -5.6890   -2.8660    1.0620 o         1 MOL     -0.426376
     85 H33        -2.3360   -2.7830    1.8660 hn        1 MOL      0.304718
     86 H34        -1.7100   -4.9750    0.0980 h1        1 MOL      0.132942
     87 H35        -2.5140   -5.5590    2.3000 hc        1 MOL      0.063970
     88 H36        -3.6740   -6.0710    1.1550 hc        1 MOL      0.063970
     89 H37        -3.9860   -3.5560    2.7330 hc        1 MOL      0.096622
     90 H38        -4.6560   -5.0620    3.2060 hc        1 MOL      0.096622
     91 H39        -6.4560   -5.8210    1.6120 hn        1 MOL      0.302439
     92 H40        -7.2260   -4.7150    0.4970 hn        1 MOL      0.302439
     93 N9         -3.6000   -2.9470   -1.3660 n         1 MOL     -0.072882
     94 C30        -3.9820   -2.7560   -2.7490 c3        1 MOL     -0.135554
     95 C31        -5.4710   -2.2970   -2.9210 c         1 MOL      0.270871
     96 O16        -6.0950   -2.2430   -3.9920 o         1 MOL     -0.527330
     97 C32        -3.0160   -1.8580   -3.5180 c3        1 MOL      0.166315
     98 C33        -1.6590   -2.5780   -3.7190 c3        1 MOL     -0.096362
     99 C34        -2.8140   -0.4730   -2.9290 c3        1 MOL     -0.096362
    100 H41        -3.2250   -2.1540   -0.8490 hn        1 MOL      0.134387
    101 H42        -4.0070   -3.7030   -3.2790 h1        1 MOL      0.134736
    102 H43        -3.3960   -1.6970   -4.5290 hc        1 MOL      0.012453
    103 H44        -1.9560   -3.4570   -4.2780 hc        1 MOL      0.013044
    104 H45        -0.9620   -1.9460   -4.2660 hc        1 MOL      0.013044
    105 H46        -1.3380   -2.9850   -2.7540 hc        1 MOL      0.013044
    106 H47        -1.7910   -0.5030   -2.5360 hc        1 MOL      0.013044
    107 H48        -2.8390    0.3110   -3.6820 hc        1 MOL      0.013044
    108 H49        -3.4500   -0.1890   -2.0980 hc        1 MOL      0.013044
    109 N10        -6.0790   -1.8920   -1.7950 n         1 MOL     -0.020641
    110 C35        -7.3570   -1.2460   -1.8050 c3        1 MOL      0.075040
    111 C36        -7.3960    0.2660   -1.3670 c         1 MOL      0.439408
    112 O17        -8.4680    0.8740   -1.4820 o         1 MOL     -0.538396
    113 C37        -8.3000   -2.0890   -0.9220 c3        1 MOL     -0.275062
    114 C38        -8.6220   -3.5060   -1.4380 c         1 MOL      0.672846
    115 N11        -8.8410   -3.7670   -2.6640 n         1 MOL     -0.741526
    116 O18        -8.5720   -4.4340   -0.6070 o         1 MOL     -0.597170
    117 H50        -5.5130   -1.9590   -0.9500 hn        1 MOL      0.177344
    118 H51        -7.7620   -1.2350   -2.8160 h1        1 MOL      0.045483
    119 H52        -9.2510   -1.5800   -0.8100 hc        1 MOL      0.060001
    120 H53        -7.8330   -2.2550    0.0500 hc        1 MOL      0.060001
    121 H54        -8.8230   -2.9710   -3.2930 hn        1 MOL      0.373503
    122 H55        -9.0150   -4.7240   -2.9430 hn        1 MOL      0.373503
    123 N12        -6.4660    0.8560   -0.6540 n         1 MOL     -0.501682
    124 C39        -6.5240    2.1650   -0.0720 c3        1 MOL      0.423032
    125 C40        -5.0840    2.7650    0.1340 c         1 MOL      0.203356
    126 O19        -4.0670    2.0750    0.3470 o         1 MOL     -0.389785
    127 C41        -7.2510    2.1410    1.3070 c3        1 MOL     -0.296713
    128 C42        -7.0130    0.8930    2.1350 ca        1 MOL      0.152876
    129 C43        -7.9030   -0.2290    2.1600 ca        1 MOL     -0.201901
    130 C44        -5.9570    0.8820    3.0150 ca        1 MOL     -0.201901
    131 C45        -7.6610   -1.3440    2.9220 ca        1 MOL     -0.263451
    132 C46        -5.6770   -0.3090    3.8090 ca        1 MOL     -0.263451
    133 C47        -6.5000   -1.4290    3.7060 ca        1 MOL      0.346495
    134 O20        -6.2360   -2.5250    4.4580 oh        1 MOL     -0.500387
    135 H56        -5.6830    0.2600   -0.4400 hn        1 MOL      0.267127
    136 H57        -6.9780    2.9160   -0.7280 h1        1 MOL      0.010883
    137 H58        -8.3040    2.2170    1.0030 hc        1 MOL      0.082123
    138 H59        -7.0780    3.0440    1.8830 hc        1 MOL      0.082123
    139 H60        -8.7530   -0.3080    1.4940 ha        1 MOL      0.170057
    140 H61        -5.3240    1.7470    3.0870 ha        1 MOL      0.170057
    141 H62        -8.2980   -2.2160    2.8690 ha        1 MOL      0.167309
    142 H63        -4.8820   -0.2690    4.5360 ha        1 MOL      0.167309
    143 H64        -6.8110   -3.2820    4.3320 ho        1 MOL      0.347239
    144 N13        -4.9800    4.1620    0.1270 n         1 MOL     -0.467431
    145 C48        -3.8960    5.0820    0.5210 c3        1 MOL     -0.030726
    146 C49        -2.6260    5.1140   -0.3490 c         1 MOL      0.588113
    147 O21        -2.1100    6.1460   -0.5190 o         1 MOL     -0.512791
    148 C50        -3.4970    4.8170    1.9550 c3        1 MOL     -0.058023
    149 C51        -2.5280    5.9130    2.5500 c3        1 MOL     -0.513787
    150 C52        -2.7030    6.0470    4.1600 c         1 MOL      0.741155
    151 O22        -2.4050    5.0560    4.8410 o         1 MOL     -0.731625
    152 O23        -3.2350    7.0210    4.7410 o         1 MOL     -0.731625
    153 H65        -5.8940    4.5620   -0.0290 hn        1 MOL      0.279020
    154 H66        -4.4050    6.0380    0.5290 h1        1 MOL      0.084218
    155 H67        -3.1060    3.8090    2.0550 hc        1 MOL      0.121859
    156 H68        -4.4440    4.7600    2.4960 hc        1 MOL      0.121859
    157 H69        -2.7700    6.8900    2.1270 hc        1 MOL      0.131148
    158 H70        -1.5100    5.6750    2.2550 hc        1 MOL      0.131148
    159 N14        -2.2350    3.9070   -0.9110 n         1 MOL     -0.465262
    160 C53        -1.1310    3.8950   -1.9530 c3        1 MOL     -0.166153
    161 C54        -1.5380    4.5130   -3.2790 c         1 MOL      0.591377
    162 O24        -0.6250    4.8830   -4.0200 o         1 MOL     -0.549588
    163 C55        -0.7730    2.4540   -2.1990 c3        1 MOL     -0.009859
    164 C56        -0.2420    1.7140   -0.9190 c3        1 MOL      0.320754
    165 C57         0.9750    2.2470   -0.2920 c         1 MOL      0.524650
    166 O25         0.8420    3.2940    0.3670 o         1 MOL     -0.624723
    167 O26         2.0910    1.6470   -0.4830 o         1 MOL     -0.624723
    168 H71        -2.8030    3.1070   -0.6690 hn        1 MOL      0.303151
    169 H72        -0.2730    4.4090   -1.5270 h1        1 MOL      0.195590
    170 H73        -0.0010    2.4510   -2.9650 hc        1 MOL     -0.015590
    171 H74        -1.6080    1.8340   -2.5200 hc        1 MOL     -0.015590
    172 H75        -0.1030    0.6580   -1.1530 hc        1 MOL     -0.091981
    173 H76        -0.9770    1.7400   -0.1140 hc        1 MOL     -0.091981
    174 N15        -2.8510    4.7510   -3.4390 n         1 MOL     -0.275169
    175 C58        -3.4190    5.5800   -4.4600 c3        1 MOL     -0.237909
    176 H77        -3.4420    5.0320   -5.4010 h1        1 MOL      0.095526
    177 H78        -4.4340    5.8600   -4.1790 h1        1 MOL      0.095526
    178 H79        -2.8140    6.4780   -4.5780 h1        1 MOL      0.095526
    179 H80        -3.4130    4.6770   -2.6060 hn        1 MOL      0.208959
    180 Ca1         4.2880    1.8920    0.7430 Ca        1 MOL      1.533488
    181 O27         4.9520    3.5490    2.8530 oh        1 MOL     -0.785081
    182 H81         5.8610    3.6490    2.5620 ho        1 MOL      0.374860
    183 H82         4.6210    4.4500    2.9410 ho        1 MOL      0.374860
    184 O28         5.9610    0.4560    2.3030 oh        1 MOL     -0.785081
    185 H83         6.8590    0.7370    2.1380 ho        1 MOL      0.374860
    186 H84         6.0190   -0.0680    3.1020 ho        1 MOL      0.374860
    187 O29         3.1850    4.2080    0.6090 oh        1 MOL     -0.785081
    188 H85         3.2270    5.1320    0.3870 ho        1 MOL      0.374860
    189 H86         2.2490    4.0080    0.6340 ho        1 MOL      0.374860
@<TRIPOS>BOND
     1    1    2 1   
     2    1    4 1   
     3    1    5 1   
     4    1    6 1   
     5    2    3 2   
     6    2    7 1   
     7    7    8 1   
     8    7   15 1   
     9    8    9 1   
    10    8   11 1   
    11    8   16 1   
    12    9   10 2   
    13    9   19 1   
    14   11   12 1   
    15   11   17 1   
    16   11   18 1   
    17   12   13 1   
    18   12   14 1   
    19   19   20 1   
    20   19   27 1   
    21   20   21 1   
    22   20   23 1   
    23   20   28 1   
    24   21   22 2   
    25   21   38 1   
    26   23   24 1   
    27   23   25 1   
    28   23   29 1   
    29   24   26 1   
    30   24   30 1   
    31   24   31 1   
    32   25   32 1   
    33   25   33 1   
    34   25   34 1   
    35   26   35 1   
    36   26   36 1   
    37   26   37 1   
    38   38   39 1   
    39   38   46 1   
    40   39   40 1   
    41   39   42 1   
    42   39   47 1   
    43   40   41 2   
    44   40   50 1   
    45   42   43 1   
    46   42   48 1   
    47   42   49 1   
    48   43   44 1   
    49   43   45 1   
    50   50   51 1   
    51   50   54 1   
    52   51   52 1   
    53   51   55 1   
    54   51   56 1   
    55   52   53 2   
    56   52   57 1   
    57   57   58 1   
    58   57   65 1   
    59   58   59 1   
    60   58   61 1   
    61   58   66 1   
    62   59   60 2   
    63   59   69 1   
    64   61   62 1   
    65   61   67 1   
    66   61   68 1   
    67   62   63 1   
    68   62   64 1   
    69   69   70 1   
    70   69   73 1   
    71   70   71 1   
    72   70   74 1   
    73   70   75 1   
    74   71   72 2   
    75   71   76 1   
    76   76   77 1   
    77   76   85 1   
    78   77   78 1   
    79   77   80 1   
    80   77   86 1   
    81   78   79 2   
    82   78   93 1   
    83   80   81 1   
    84   80   87 1   
    85   80   88 1   
    86   81   82 1   
    87   81   89 1   
    88   81   90 1   
    89   82   83 1   
    90   82   84 2   
    91   83   91 1   
    92   83   92 1   
    93   93   94 1   
    94   93  100 1   
    95   94   95 1   
    96   94   97 1   
    97   94  101 1   
    98   95   96 2   
    99   95  109 1   
   100   97   98 1   
   101   97   99 1   
   102   97  102 1   
   103   98  103 1   
   104   98  104 1   
   105   98  105 1   
   106   99  106 1   
   107   99  107 1   
   108   99  108 1   
   109  109  110 1   
   110  109  117 1   
   111  110  111 1   
   112  110  113 1   
   113  110  118 1   
   114  111  112 2   
   115  111  123 1   
   116  113  114 1   
   117  113  119 1   
   118  113  120 1   
   119  114  115 1   
   120  114  116 2   
   121  115  121 1   
   122  115  122 1   
   123  123  124 1   
   124  123  135 1   
   125  124  125 1   
   126  124  127 1   
   127  124  136 1   
   128  125  126 2   
   129  125  144 1   
   130  127  128 1   
   131  127  137 1   
   132  127  138 1   
   133  128  129 ar  
   134  128  130 ar  
   135  129  131 ar  
   136  129  139 1   
   137  130  132 ar  
   138  130  140 1   
   139  131  133 ar  
   140  131  141 1   
   141  132  133 ar  
   142  132  142 1   
   143  133  134 1   
   144  134  143 1   
   145  144  145 1   
   146  144  153 1   
   147  145  146 1   
   148  145  148 1   
   149  145  154 1   
   150  146  147 2   
   151  146  159 1   
   152  148  149 1   
   153  148  155 1   
   154  148  156 1   
   155  149  150 1   
   156  149  157 1   
   157  149  158 1   
   158  150  151 1   
   159  150  152 1   
   160  159  160 1   
   161  159  168 1   
   162  160  161 1   
   163  160  163 1   
   164  160  169 1   
   165  161  162 2   
   166  161  174 1   
   167  163  164 1   
   168  163  170 1   
   169  163  171 1   
   170  164  165 1   
   171  164  172 1   
   172  164  173 1   
   173  165  166 1   
   174  165  167 1   
   175  174  175 1   
   176  174  179 1   
   177  175  176 1   
   178  175  177 1   
   179  175  178 1   
   180  181  182 1   
   181  181  183 1   
   182  184  185 1   
   183  184  186 1   
   184  187  188 1   
   185  187  189 1   
@<TRIPOS>SUBSTRUCTURE
     1 MOL         1 TEMP              0 ****  ****    0 ROOT
