@<TRIPOS>MOLECULE
MOL
  185   180     1     0     0
SMALL
resp


@<TRIPOS>ATOM
      1 C1         -5.8480    0.2760   -4.0120 c3        1 MOL     -0.443326
      2 C2         -6.4310    0.5270   -2.5900 c         1 MOL      0.506780
      3 O1         -5.7600    0.7840   -1.5870 o         1 MOL     -0.509691
      4 H1         -6.6260    0.4440   -4.7570 hc        1 MOL      0.115594
      5 H2         -5.0200    0.9620   -4.1920 hc        1 MOL      0.115594
      6 H3         -5.4920   -0.7520   -4.0840 hc        1 MOL      0.115594
      7 N1         -7.7520    0.4110   -2.6330 n         1 MOL     -0.334538
      8 C3         -8.7170    0.5940   -1.5770 c3        1 MOL      0.040389
      9 C4         -8.4790   -0.2150   -0.3140 c         1 MOL      0.332969
     10 O2         -8.7810    0.3030    0.7670 o         1 MOL     -0.425660
     11 C5         -8.7430    2.0800   -1.2030 c3        1 MOL     -0.043172
     12 C6        -10.0650    2.5160   -0.4470 c         1 MOL      0.658120
     13 O3        -10.0980    3.5370    0.2610 o         1 MOL     -0.675883
     14 O4        -11.0830    1.8540   -0.7930 o         1 MOL     -0.675883
     15 H4         -8.1310    0.1550   -3.5330 hn        1 MOL      0.285723
     16 H5         -9.6290    0.1910   -2.0150 h1        1 MOL     -0.022657
     17 H6         -8.7260    2.5920   -2.1650 hc        1 MOL      0.010056
     18 H7         -7.8130    2.3720   -0.7270 hc        1 MOL      0.010056
     19 N2         -7.9380   -1.4450   -0.3860 n         1 MOL     -0.385448
     20 C7         -7.6640   -2.2660    0.8250 c3        1 MOL      0.226349
     21 C8         -6.1860   -2.3470    1.2170 c         1 MOL      0.461611
     22 O5         -5.9180   -3.3210    1.9700 o         1 MOL     -0.542045
     23 C9         -8.5290   -3.5150    0.8700 c3        1 MOL      0.142283
     24 C10       -10.0710   -3.4450    0.9050 c3        1 MOL     -0.266702
     25 C11       -10.8250   -2.8270   -0.3660 c3        1 MOL      0.163282
     26 C12       -12.2780   -3.1670   -0.3970 c3        1 MOL      0.063986
     27 N3        -13.0160   -2.3690   -1.3330 n4        1 MOL     -0.117905
     28 H8         -7.6290   -1.8400   -1.2610 hn        1 MOL      0.195252
     29 H9         -7.9550   -1.6930    1.7030 h1        1 MOL      0.048992
     30 H10        -8.1970   -3.9730    1.8000 hc        1 MOL     -0.030977
     31 H11        -8.0490   -4.1940    0.1670 hc        1 MOL     -0.030977
     32 H12       -10.3100   -2.7110    1.6810 hc        1 MOL      0.094564
     33 H13       -10.4210   -4.4530    1.1300 hc        1 MOL      0.094564
     34 H14       -10.3510   -3.2660   -1.2370 hc        1 MOL     -0.039635
     35 H15       -10.6650   -1.7540   -0.3590 hc        1 MOL     -0.039635
     36 H16       -12.7390   -3.1000    0.5930 hx        1 MOL      0.039207
     37 H17       -12.3040   -4.2200   -0.6740 hx        1 MOL      0.039207
     38 H18       -12.8420   -1.3800   -1.2740 hn        1 MOL      0.253573
     39 H19       -12.7740   -2.5440   -2.3010 hn        1 MOL      0.253573
     40 H20       -13.9970   -2.5950   -1.2480 hn        1 MOL      0.253573
     41 N4         -5.3050   -1.5490    0.6560 n         1 MOL     -0.402583
     42 C13        -3.8060   -1.8560    0.6170 c3        1 MOL     -0.157755
     43 C14        -3.0920   -2.1810    2.0220 c         1 MOL      0.477888
     44 O6         -3.2410   -1.4690    3.0440 o         1 MOL     -0.418249
     45 C15        -3.1140   -0.6500   -0.0320 c3        1 MOL      0.006032
     46 C16        -1.6530   -0.8630   -0.2490 c         1 MOL      0.662892
     47 O7         -1.2150   -1.1780   -1.3780 o         1 MOL     -0.786988
     48 O8         -0.8630   -0.6970    0.6720 o         1 MOL     -0.786988
     49 H21        -5.6680   -0.8440    0.0380 hn        1 MOL      0.313608
     50 H22        -3.6680   -2.6910   -0.0690 h1        1 MOL      0.093730
     51 H23        -3.3020    0.1910    0.6370 hc        1 MOL      0.082623
     52 H24        -3.5950   -0.4810   -1.0040 hc        1 MOL      0.082623
     53 N5         -2.2380   -3.2500    1.9660 n         1 MOL     -0.192163
     54 C17        -1.5770   -3.8460    3.1360 c3        1 MOL     -0.268178
     55 C18        -0.6600   -2.9030    3.8970 c         1 MOL      0.591080
     56 O9         -0.2870   -3.1790    5.0450 o         1 MOL     -0.579141
     57 H25        -2.1120   -3.6800    1.0570 hn        1 MOL      0.181678
     58 H26        -0.8700   -4.6060    2.8260 h1        1 MOL      0.141503
     59 H27        -2.2950   -4.2720    3.8500 h1        1 MOL      0.141503
     60 N6         -0.2060   -1.7750    3.3570 n         1 MOL     -0.356176
     61 C19         0.4570   -0.7180    4.0730 c3        1 MOL      0.030931
     62 C20        -0.0390    0.7260    3.6360 c         1 MOL      0.396029
     63 O10         0.5550    1.7220    4.0530 o         1 MOL     -0.558544
     64 C21         1.9360   -1.0530    3.9600 c3        1 MOL     -0.158345
     65 C22         2.5410   -0.7170    2.5970 c         1 MOL      0.561226
     66 N7          3.5710    0.0660    2.6380 n         1 MOL     -0.574623
     67 O11         2.0680   -1.0360    1.5260 o         1 MOL     -0.680602
     68 H28        -0.4100   -1.5590    2.3840 hn        1 MOL      0.340180
     69 H29         0.2960   -0.7970    5.1430 h1        1 MOL      0.118458
     70 H30         2.1720   -2.1000    4.1850 hc        1 MOL      0.067406
     71 H31         2.5840   -0.5100    4.6500 hc        1 MOL      0.067406
     72 H32         3.8820    0.4360    3.5150 hn        1 MOL      0.301619
     73 H33         3.9800    0.4230    1.7900 hn        1 MOL      0.301619
     74 N8         -1.1830    0.8350    3.0340 n         1 MOL      0.091012
     75 C23        -2.0210    2.0200    2.8800 c3        1 MOL     -0.420424
     76 C24        -1.4520    2.9700    1.7400 c         1 MOL      0.510429
     77 O12        -1.6230    4.1930    1.8360 o         1 MOL     -0.495260
     78 H34        -1.6080   -0.0410    2.7840 hn        1 MOL     -0.069090
     79 H35        -2.1210    2.5050    3.8530 h1        1 MOL      0.188981
     80 H36        -3.0030    1.6430    2.5880 h1        1 MOL      0.188981
     81 N9         -0.7640    2.4050    0.7750 n         1 MOL     -0.242146
     82 C25        -0.1100    3.0010   -0.3510 c3        1 MOL      0.271964
     83 C26         1.2190    2.2750   -0.6760 c         1 MOL      0.050352
     84 O13         1.2860    1.0470   -0.5720 o         1 MOL     -0.114013
     85 C27        -0.9940    3.0390   -1.6290 c3        1 MOL     -0.166714
     86 C28        -2.2810    3.8260   -1.3560 ca        1 MOL      0.268101
     87 C29        -2.0960    5.2130   -1.0200 ca        1 MOL     -0.387755
     88 C30        -3.5510    3.3430   -1.5980 ca        1 MOL     -0.387755
     89 C31        -3.2320    6.0100   -0.8610 ca        1 MOL     -0.030565
     90 C32        -4.7050    4.0840   -1.3170 ca        1 MOL     -0.030565
     91 C33        -4.5070    5.4360   -0.9840 ca        1 MOL      0.135215
     92 O14        -5.5930    6.2480   -0.6980 oh        1 MOL     -0.460977
     93 H37        -0.6910    1.3960    0.8300 hn        1 MOL      0.112230
     94 H38         0.0860    4.0380   -0.0790 h1        1 MOL     -0.017318
     95 H39        -1.2400    1.9860   -1.8090 hc        1 MOL      0.018510
     96 H40        -0.3880    3.5260   -2.3990 hc        1 MOL      0.018510
     97 H41        -1.1250    5.6760   -0.9170 ha        1 MOL      0.184955
     98 H42        -3.5940    2.3080   -1.8990 ha        1 MOL      0.184955
     99 H43        -3.1680    7.0870   -0.7300 ha        1 MOL      0.115061
    100 H44        -5.6720    3.6360   -1.4040 ha        1 MOL      0.115061
    101 H45        -6.3550    5.6750   -0.8460 ho        1 MOL      0.370393
    102 N10         2.2670    2.9780   -1.1870 n         1 MOL     -0.196710
    103 C34         3.6460    2.5020   -1.4180 c3        1 MOL     -0.019749
    104 C35         4.3530    2.4340   -0.0820 c         1 MOL      0.377875
    105 O15         4.5780    1.3000    0.3120 o         1 MOL     -0.480655
    106 C36         4.3200    3.4330   -2.4400 c3        1 MOL     -0.056709
    107 C37         3.4630    3.5440   -3.6980 c3        1 MOL      0.221781
    108 C38         5.6770    2.8380   -2.8030 c3        1 MOL     -0.404315
    109 C39         2.9750    2.3040   -4.4050 c3        1 MOL     -0.208611
    110 H46         2.1010    3.9810   -1.2200 hn        1 MOL      0.255691
    111 H47         3.6340    1.4750   -1.7760 h1        1 MOL      0.057542
    112 H48         4.3220    4.4500   -2.0470 hc        1 MOL      0.017234
    113 H49         4.1000    4.0230   -4.4380 hc        1 MOL     -0.041016
    114 H50         2.5980    4.1660   -3.4690 hc        1 MOL     -0.041016
    115 H51         6.3060    2.7070   -1.9200 hc        1 MOL      0.127857
    116 H52         5.5290    1.8770   -3.2890 hc        1 MOL      0.127857
    117 H53         6.1940    3.3920   -3.5910 hc        1 MOL      0.127857
    118 H54         2.3440    1.7300   -3.7340 hc        1 MOL      0.054793
    119 H55         2.4120    2.7200   -5.2470 hc        1 MOL      0.054793
    120 H56         3.8200    1.7150   -4.7560 hc        1 MOL      0.054793
    121 N11         4.5860    3.5440    0.6150 n         1 MOL     -0.220573
    122 C40         5.2090    3.3700    1.9990 c3        1 MOL     -0.114078
    123 C41         6.5470    2.5640    2.0280 c         1 MOL      0.510574
    124 O16         6.7970    1.9150    3.0080 o         1 MOL     -0.513236
    125 C42         5.3150    4.8060    2.5910 c3        1 MOL      0.075480
    126 O17         5.7690    5.7020    1.6550 oh        1 MOL     -0.623508
    127 H57         4.2780    4.4420    0.2610 hn        1 MOL      0.244064
    128 H58         4.5420    2.8210    2.6570 h1        1 MOL      0.113051
    129 H59         5.9830    4.8530    3.4530 h1        1 MOL      0.072153
    130 H60         4.3010    5.0580    2.9360 h1        1 MOL      0.072153
    131 H61         5.4870    6.5840    1.8860 ho        1 MOL      0.434054
    132 N12         7.3700    2.6980    1.0070 n         1 MOL     -0.205246
    133 C43         8.6780    2.0400    0.7910 c3        1 MOL     -0.021759
    134 C44         8.7930    0.5470    0.7840 c         1 MOL      0.427450
    135 O18         9.9160    0.0580    0.6150 o         1 MOL     -0.493952
    136 C45         9.6870    2.6870    1.6630 c3        1 MOL     -0.360488
    137 H62         6.9440    3.2440    0.2720 hn        1 MOL      0.217941
    138 H63         8.8450    2.4490   -0.2010 h1        1 MOL      0.093409
    139 H64        10.7380    2.4100    1.5490 hc        1 MOL      0.123847
    140 H65         9.5700    3.7660    1.6350 hc        1 MOL      0.123847
    141 H66         9.3940    2.3130    2.6490 hc        1 MOL      0.123847
    142 N13         7.6430   -0.1360    0.9990 n         1 MOL     -0.254057
    143 C46         7.6080   -1.5780    0.8380 c3        1 MOL      0.232690
    144 C47         7.2690   -2.1930   -0.5320 c         1 MOL      0.487129
    145 O19         6.8440   -1.4790   -1.4170 o         1 MOL     -0.523243
    146 C48         6.6390   -2.0880    1.8510 c3        1 MOL     -0.200508
    147 H67         6.7480    0.3210    1.1510 hn        1 MOL      0.122922
    148 H68         8.5940   -1.9170    1.1550 h1        1 MOL      0.006906
    149 H69         6.7710   -1.6260    2.8370 hc        1 MOL      0.063608
    150 H70         5.6280   -1.7430    1.6090 hc        1 MOL      0.063608
    151 H71         6.7170   -3.1670    1.9240 hc        1 MOL      0.063608
    152 N14         7.3520   -3.4820   -0.6630 n         1 MOL     -0.635070
    153 C49         6.8600   -4.3220   -1.8210 c3        1 MOL      0.051233
    154 C50         7.3810   -3.8640   -3.1560 c         1 MOL      0.443216
    155 O20         6.7890   -4.0830   -4.1890 o         1 MOL     -0.474662
    156 C51         5.2770   -4.4330   -1.7850 c3        1 MOL      0.059052
    157 C52         4.6290   -4.8580   -0.4650 c3        1 MOL     -0.048469
    158 C53         3.1520   -4.6610   -0.5340 c         1 MOL      0.811948
    159 O21         2.4650   -5.4760   -1.1670 o         1 MOL     -0.755865
    160 O22         2.5320   -3.7120    0.0490 o         1 MOL     -0.755865
    161 H72         7.7150   -4.0400    0.0920 hn        1 MOL      0.354600
    162 H73         7.1650   -5.3610   -1.7000 h1        1 MOL      0.086268
    163 H74         4.9420   -5.0000   -2.6580 hc        1 MOL      0.000115
    164 H75         4.8140   -3.4520   -1.9250 hc        1 MOL      0.000115
    165 H76         4.9170   -4.2170    0.3720 hc        1 MOL     -0.006183
    166 H77         4.8310   -5.8900   -0.1790 hc        1 MOL     -0.006183
    167 N15         8.5090   -3.1420   -3.1400 n         1 MOL     -0.424600
    168 C54         8.8500   -2.2540   -4.2590 c3        1 MOL      0.110587
    169 H78         8.2860   -2.5510   -5.1440 h1        1 MOL      0.028199
    170 H79         8.6000   -1.2260   -3.9980 h1        1 MOL      0.028199
    171 H80         9.9180   -2.3260   -4.4690 h1        1 MOL      0.028199
    172 H81         8.9090   -2.9290   -2.2310 hn        1 MOL      0.280964
    173 Ca1         1.2440   -1.5710   -0.9060 Ca        1 MOL      1.798719
    174 O23         0.8800   -0.2500   -3.1260 oh        1 MOL     -0.892685
    175 H82         0.1250    0.3320   -3.2110 ho        1 MOL      0.430833
    176 H83         1.0810   -0.5310   -4.0200 ho        1 MOL      0.430833
    177 O24         1.9810   -3.1610   -2.8710 oh        1 MOL     -0.892685
    178 H84         2.1930   -3.9240   -2.3450 ho        1 MOL      0.430833
    179 H85         1.9470   -3.4800   -3.7710 ho        1 MOL      0.430833
    180 O25        -0.3680   -3.8240   -0.3960 oh        1 MOL     -0.892685
    181 H86        -1.2350   -4.1620   -0.6160 ho        1 MOL      0.430833
    182 H87         0.1880   -4.5980   -0.3530 ho        1 MOL      0.430833
    183 O26         3.9400   -1.0680   -1.4180 oh        1 MOL     -0.892685
    184 H88         4.5960   -1.6790   -1.7630 ho        1 MOL      0.430833
    185 H89         4.4260   -0.2680   -1.2390 ho        1 MOL      0.430833
@<TRIPOS>BOND
     1    1    2 1   
     2    1    4 1   
     3    1    5 1   
     4    1    6 1   
     5    2    3 2   
     6    2    7 1   
     7    7    8 1   
     8    7   15 1   
     9    8    9 1   
    10    8   11 1   
    11    8   16 1   
    12    9   10 2   
    13    9   19 1   
    14   11   12 1   
    15   11   17 1   
    16   11   18 1   
    17   12   13 1   
    18   12   14 1   
    19   19   20 1   
    20   19   28 1   
    21   20   21 1   
    22   20   23 1   
    23   20   29 1   
    24   21   22 2   
    25   21   41 1   
    26   23   24 1   
    27   23   30 1   
    28   23   31 1   
    29   24   25 1   
    30   24   32 1   
    31   24   33 1   
    32   25   26 1   
    33   25   34 1   
    34   25   35 1   
    35   26   27 1   
    36   26   36 1   
    37   26   37 1   
    38   27   38 1   
    39   27   39 1   
    40   27   40 1   
    41   41   42 1   
    42   41   49 1   
    43   42   43 1   
    44   42   45 1   
    45   42   50 1   
    46   43   44 2   
    47   43   53 1   
    48   45   46 1   
    49   45   51 1   
    50   45   52 1   
    51   46   47 1   
    52   46   48 1   
    53   53   54 1   
    54   53   57 1   
    55   54   55 1   
    56   54   58 1   
    57   54   59 1   
    58   55   56 2   
    59   55   60 1   
    60   60   61 1   
    61   60   68 1   
    62   61   62 1   
    63   61   64 1   
    64   61   69 1   
    65   62   63 2   
    66   62   74 1   
    67   64   65 1   
    68   64   70 1   
    69   64   71 1   
    70   65   66 1   
    71   65   67 2   
    72   66   72 1   
    73   66   73 1   
    74   74   75 1   
    75   74   78 1   
    76   75   76 1   
    77   75   79 1   
    78   75   80 1   
    79   76   77 2   
    80   76   81 1   
    81   81   82 1   
    82   81   93 1   
    83   82   83 1   
    84   82   85 1   
    85   82   94 1   
    86   83   84 2   
    87   83  102 1   
    88   85   86 1   
    89   85   95 1   
    90   85   96 1   
    91   86   87 ar  
    92   86   88 ar  
    93   87   89 ar  
    94   87   97 1   
    95   88   90 ar  
    96   88   98 1   
    97   89   91 ar  
    98   89   99 1   
    99   90   91 ar  
   100   90  100 1   
   101   91   92 1   
   102   92  101 1   
   103  102  103 1   
   104  102  110 1   
   105  103  104 1   
   106  103  106 1   
   107  103  111 1   
   108  104  105 2   
   109  104  121 1   
   110  106  107 1   
   111  106  108 1   
   112  106  112 1   
   113  107  109 1   
   114  107  113 1   
   115  107  114 1   
   116  108  115 1   
   117  108  116 1   
   118  108  117 1   
   119  109  118 1   
   120  109  119 1   
   121  109  120 1   
   122  121  122 1   
   123  121  127 1   
   124  122  123 1   
   125  122  125 1   
   126  122  128 1   
   127  123  124 2   
   128  123  132 1   
   129  125  126 1   
   130  125  129 1   
   131  125  130 1   
   132  126  131 1   
   133  132  133 1   
   134  132  137 1   
   135  133  134 1   
   136  133  136 1   
   137  133  138 1   
   138  134  135 2   
   139  134  142 1   
   140  136  139 1   
   141  136  140 1   
   142  136  141 1   
   143  142  143 1   
   144  142  147 1   
   145  143  144 1   
   146  143  146 1   
   147  143  148 1   
   148  144  145 2   
   149  144  152 1   
   150  146  149 1   
   151  146  150 1   
   152  146  151 1   
   153  152  153 1   
   154  152  161 1   
   155  153  154 1   
   156  153  156 1   
   157  153  162 1   
   158  154  155 2   
   159  154  167 1   
   160  156  157 1   
   161  156  163 1   
   162  156  164 1   
   163  157  158 1   
   164  157  165 1   
   165  157  166 1   
   166  158  159 1   
   167  158  160 1   
   168  167  168 1   
   169  167  172 1   
   170  168  169 1   
   171  168  170 1   
   172  168  171 1   
   173  174  175 1   
   174  174  176 1   
   175  177  178 1   
   176  177  179 1   
   177  180  181 1   
   178  180  182 1   
   179  183  184 1   
   180  183  185 1   
@<TRIPOS>SUBSTRUCTURE
     1 MOL         1 TEMP              0 ****  ****    0 ROOT
