@<TRIPOS>MOLECULE
MOL
  191   184     1     0     0
SMALL
resp


@<TRIPOS>ATOM
      1 C1         -6.0390   -0.5660    4.3950 c3        1 MOL     -0.324681
      2 C2         -6.2530   -0.9440    2.9160 c         1 MOL      0.700244
      3 O1         -5.6040   -0.3860    2.0500 o         1 MOL     -0.636751
      4 H1         -6.8740    0.0460    4.7370 hc        1 MOL      0.074607
      5 H2         -5.9830   -1.4720    4.9980 hc        1 MOL      0.074607
      6 H3         -5.1110   -0.0030    4.4970 hc        1 MOL      0.074607
      7 N1         -7.1460   -1.8640    2.6350 n         1 MOL     -0.542533
      8 C3         -7.6820   -2.2290    1.3100 c3        1 MOL      0.195404
      9 C4         -8.1980   -1.1040    0.3830 c         1 MOL      0.255480
     10 O2         -8.6680   -1.4280   -0.7550 o         1 MOL     -0.429128
     11 C5         -6.6160   -3.0750    0.6410 c3        1 MOL     -0.256781
     12 C6         -7.2010   -4.0300   -0.3430 c         1 MOL      0.709374
     13 O3         -8.3560   -4.4330   -0.2820 o         1 MOL     -0.648243
     14 O4         -6.4410   -4.5130   -1.1990 o         1 MOL     -0.648243
     15 H4         -7.6500   -2.2550    3.4300 hn        1 MOL      0.302352
     16 H5         -8.5360   -2.8410    1.6180 h1        1 MOL      0.057819
     17 H6         -6.0140   -3.6450    1.3500 hc        1 MOL      0.106986
     18 H7         -5.9540   -2.4010    0.0900 hc        1 MOL      0.106986
     19 N2         -8.1770    0.1790    0.7080 n         1 MOL     -0.191981
     20 C7         -8.4270    1.3760   -0.1140 c3        1 MOL     -0.021812
     21 C8         -7.2120    1.8700   -0.8490 c         1 MOL      0.689908
     22 O5         -7.3470    2.8180   -1.6390 o         1 MOL     -0.597732
     23 C9         -8.9420    2.5400    0.8210 c3        1 MOL     -0.182276
     24 C10        -7.9060    3.0550    1.8670 c3        1 MOL     -0.099053
     25 C11        -8.3830    4.2350    2.7180 c3        1 MOL      0.003569
     26 C12        -7.2660    4.8140    3.5840 c3        1 MOL     -0.024385
     27 N3         -7.7680    5.6030    4.7600 n4        1 MOL     -0.064259
     28 H8         -7.9130    0.3490    1.6690 hn        1 MOL      0.152365
     29 H9         -9.0740    1.1040   -0.9520 h1        1 MOL      0.114938
     30 H10        -9.8600    2.2510    1.3210 hc        1 MOL      0.078432
     31 H11        -9.1250    3.3980    0.1690 hc        1 MOL      0.078432
     32 H12        -7.0850    3.4140    1.2430 hc        1 MOL      0.080943
     33 H13        -7.5900    2.2660    2.5400 hc        1 MOL      0.080943
     34 H14        -9.1830    3.8670    3.3640 hc        1 MOL      0.033140
     35 H15        -8.8360    4.9470    2.0350 hc        1 MOL      0.033140
     36 H16        -6.5100    5.3260    3.0000 hx        1 MOL      0.076198
     37 H17        -6.6870    4.0220    4.0630 hx        1 MOL      0.076198
     38 H18        -8.5630    5.1920    5.2320 hn        1 MOL      0.155136
     39 H19        -7.0930    5.8520    5.4590 hn        1 MOL      0.155136
     40 H20        -8.1030    6.5120    4.4570 hn        1 MOL      0.155136
     41 N4         -6.1100    1.1290   -0.6770 n         1 MOL     -0.501928
     42 C13        -4.7770    1.3590   -1.2270 c3        1 MOL     -0.033601
     43 C14        -4.5650    0.7410   -2.5880 c         1 MOL      0.558917
     44 O6         -4.7510   -0.4730   -2.7080 o         1 MOL     -0.422580
     45 C15        -3.5940    1.1470   -0.2460 c3        1 MOL      0.569525
     46 C16        -2.3720    1.9030   -0.7090 c         1 MOL      0.356143
     47 O7         -1.5170    1.4040   -1.4840 o         1 MOL     -0.726524
     48 O8         -2.2620    3.1180   -0.4510 o         1 MOL     -0.726524
     49 H21        -6.1600    0.4000    0.0240 hn        1 MOL      0.242477
     50 H22        -4.7920    2.4200   -1.4720 h1        1 MOL      0.009727
     51 H23        -3.3740    0.0890   -0.1500 hc        1 MOL     -0.135790
     52 H24        -3.9510    1.5780    0.6930 hc        1 MOL     -0.135790
     53 N5         -4.1190    1.4720   -3.6440 n         1 MOL     -0.372144
     54 C17        -3.9480    0.9350   -4.9410 c3        1 MOL     -0.187114
     55 C18        -2.7660    0.0230   -5.0350 c         1 MOL      0.453601
     56 O9         -2.5650   -0.7050   -6.0280 o         1 MOL     -0.545986
     57 H25        -4.0030    2.4630   -3.4720 hn        1 MOL      0.275609
     58 H26        -3.7580    1.7570   -5.6370 h1        1 MOL      0.135635
     59 H27        -4.8260    0.4290   -5.3440 h1        1 MOL      0.135635
     60 N6         -1.8880   -0.0820   -4.0180 n         1 MOL     -0.070318
     61 C19        -0.8680   -1.1420   -3.9490 c3        1 MOL     -0.272694
     62 C20        -1.4010   -2.3900   -3.1620 c         1 MOL      0.605860
     63 O10        -0.6720   -3.3720   -2.9700 o         1 MOL     -0.641221
     64 C21         0.4230   -0.5220   -3.2460 c3        1 MOL     -0.103047
     65 C22         0.9700    0.6850   -4.0010 c         1 MOL      0.413146
     66 N7          1.3730    0.5280   -5.2110 n         1 MOL     -0.633080
     67 O11         0.9660    1.8120   -3.5610 o         1 MOL     -0.523493
     68 H28        -1.9520    0.6400   -3.3180 hn        1 MOL      0.065279
     69 H29        -0.5700   -1.3790   -4.9650 h1        1 MOL      0.164937
     70 H30         1.2360   -1.2360   -3.1880 hc        1 MOL      0.106491
     71 H31         0.2230   -0.2400   -2.2060 hc        1 MOL      0.106491
     72 H32         1.3700   -0.3160   -5.7700 hn        1 MOL      0.349389
     73 H33         1.9020    1.3150   -5.5750 hn        1 MOL      0.349389
     74 N8         -2.5760   -2.2580   -2.6580 n         1 MOL     -0.197705
     75 C23        -3.2080   -3.2920   -1.7320 c3        1 MOL     -0.004736
     76 C24        -2.6780   -3.2790   -0.2820 c         1 MOL      0.391906
     77 O12        -2.9820   -4.1790    0.4900 o         1 MOL     -0.518411
     78 H34        -3.1740   -1.4640   -2.8300 hn        1 MOL      0.123912
     79 H35        -3.1170   -4.2700   -2.1980 h1        1 MOL      0.088760
     80 H36        -4.2700   -3.0640   -1.7400 h1        1 MOL      0.088760
     81 N9         -1.8550   -2.3410    0.0180 n         1 MOL     -0.171684
     82 C25        -1.1480   -2.2500    1.2490 c3        1 MOL      0.026347
     83 C26         0.1790   -1.5620    1.1550 c         1 MOL      0.263648
     84 O13         0.3200   -0.5350    0.5180 o         1 MOL     -0.463321
     85 C27        -2.0060   -1.5370    2.2760 c3        1 MOL      0.022068
     86 C28        -1.2720   -1.3050    3.5810 ca        1 MOL      0.326343
     87 C29        -1.2470   -2.3440    4.5240 ca        1 MOL     -0.395702
     88 C30        -0.8280   -0.0520    3.8900 ca        1 MOL     -0.395702
     89 C31        -0.7400   -2.0880    5.8180 ca        1 MOL     -0.052249
     90 C32        -0.1920    0.1470    5.1150 ca        1 MOL     -0.052249
     91 C33        -0.1190   -0.8210    6.0970 ca        1 MOL      0.131927
     92 O14         0.5610   -0.5930    7.2400 oh        1 MOL     -0.427000
     93 H37        -1.5600   -1.6500   -0.6630 hn        1 MOL      0.254116
     94 H38        -0.9560   -3.2530    1.6230 h1        1 MOL      0.065156
     95 H39        -2.8870   -2.1670    2.4150 hc        1 MOL      0.019872
     96 H40        -2.3010   -0.5640    1.8890 hc        1 MOL      0.019872
     97 H41        -1.6130   -3.3520    4.3550 ha        1 MOL      0.176010
     98 H42        -0.8210    0.7030    3.1140 ha        1 MOL      0.176010
     99 H43        -0.7140   -2.8440    6.5900 ha        1 MOL      0.104656
    100 H44         0.1580    1.1420    5.3710 ha        1 MOL      0.104656
    101 H45         0.9800    0.2710    7.2940 ho        1 MOL      0.354456
    102 N10         1.2190   -2.1420    1.7280 n         1 MOL     -0.303646
    103 C34         2.5370   -1.6660    1.6370 c3        1 MOL     -0.370525
    104 C35         3.1090   -2.1250    0.2450 c         1 MOL      0.736516
    105 O15         3.8760   -1.3400   -0.3240 o         1 MOL     -0.538762
    106 C36         3.3880   -2.2400    2.7640 c3        1 MOL      0.009578
    107 C37         2.7720   -1.7430    4.1370 c3        1 MOL      0.406463
    108 C38         4.7910   -1.7460    2.6030 c3        1 MOL     -0.366508
    109 C39         3.2230   -2.5100    5.3480 c3        1 MOL     -0.188212
    110 H46         1.0940   -3.0200    2.2010 hn        1 MOL      0.279787
    111 H47         2.5580   -0.5770    1.7360 h1        1 MOL      0.165284
    112 H48         3.3320   -3.3200    2.6750 hc        1 MOL     -0.006867
    113 H49         1.7080   -1.9290    4.2190 hc        1 MOL     -0.067266
    114 H50         2.9800   -0.6860    4.2990 hc        1 MOL     -0.067266
    115 H51         4.8330   -0.6520    2.4960 hc        1 MOL      0.118412
    116 H52         5.4530   -1.8380    3.4620 hc        1 MOL      0.118412
    117 H53         5.2980   -2.2620    1.7940 hc        1 MOL      0.118412
    118 H54         2.8190   -2.0890    6.2660 hc        1 MOL      0.024836
    119 H55         2.9370   -3.5580    5.3280 hc        1 MOL      0.024836
    120 H56         4.3070   -2.4180    5.1940 hc        1 MOL      0.024836
    121 N11         2.7600   -3.3040   -0.3450 n         1 MOL     -0.294245
    122 C40         3.1960   -3.6490   -1.6840 c3        1 MOL     -0.266767
    123 C41         4.6620   -3.9540   -1.7570 c         1 MOL      0.672683
    124 O16         5.3010   -3.8220   -2.7950 o         1 MOL     -0.520652
    125 C42         2.4000   -4.8230   -2.1360 c3        1 MOL     -0.013630
    126 O17         2.4480   -5.9800   -1.3770 oh        1 MOL     -0.628022
    127 H57         2.1100   -3.9360    0.1110 hn        1 MOL      0.298025
    128 H58         3.0480   -2.7880   -2.3270 h1        1 MOL      0.106177
    129 H59         2.8970   -4.9690   -3.1020 h1        1 MOL      0.121486
    130 H60         1.3580   -4.5020   -2.1290 h1        1 MOL      0.121486
    131 H61         2.3380   -6.7670   -1.9140 ho        1 MOL      0.451034
    132 N12         5.3110   -4.2440   -0.6380 n         1 MOL     -0.305033
    133 C43         6.7060   -4.2260   -0.5040 c3        1 MOL      0.118316
    134 C44         7.3440   -2.9470   -1.0560 c         1 MOL      0.448561
    135 O18         8.4190   -2.8790   -1.7000 o         1 MOL     -0.518387
    136 C45         7.3720   -5.4720   -1.0880 c3        1 MOL     -0.458358
    137 H62         4.7730   -4.5570    0.1550 hn        1 MOL      0.227671
    138 H63         6.9150   -4.2520    0.5660 h1        1 MOL      0.080521
    139 H64         7.1840   -5.5250   -2.1600 hc        1 MOL      0.127244
    140 H65         8.4550   -5.5340   -0.9900 hc        1 MOL      0.127244
    141 H66         6.8220   -6.3400   -0.7200 hc        1 MOL      0.127244
    142 N13         6.7500   -1.7740   -0.7800 n         1 MOL     -0.384372
    143 C46         7.0890   -0.4210   -1.2430 c3        1 MOL      0.407265
    144 C47         7.2250    0.5840   -0.0590 c         1 MOL      0.315468
    145 O19         6.6410    0.4460    1.0090 o         1 MOL     -0.475287
    146 C48         6.0450    0.1140   -2.1970 c3        1 MOL     -0.046256
    147 H67         5.8530   -1.7610   -0.3040 hn        1 MOL      0.060689
    148 H68         8.0340   -0.4800   -1.7800 h1        1 MOL     -0.016157
    149 H69         6.4500    1.0040   -2.6910 hc        1 MOL      0.004729
    150 H70         5.8200   -0.5490   -3.0430 hc        1 MOL      0.004729
    151 H71         5.1100    0.4180   -1.7320 hc        1 MOL      0.004729
    152 N14         8.0870    1.6100   -0.1390 n         1 MOL     -0.442950
    153 C49         8.4220    2.6790    0.9300 c3        1 MOL     -0.046388
    154 C50         8.7630    2.1350    2.3760 c         1 MOL      0.395041
    155 O20         8.6490    2.8520    3.3820 o         1 MOL     -0.464678
    156 C51         7.1790    3.5120    1.0860 c3        1 MOL      0.162933
    157 C52         7.5690    5.0000    1.2760 c3        1 MOL     -0.548636
    158 C53         8.1150    5.7700    0.0300 c         1 MOL      0.799445
    159 O21         9.3490    6.0440   -0.0280 o         1 MOL     -0.686564
    160 O22         7.3600    6.1960   -0.8530 o         1 MOL     -0.686564
    161 H72         8.7680    1.5380   -0.8860 hn        1 MOL      0.279609
    162 H73         9.2370    3.2650    0.5160 h1        1 MOL      0.128945
    163 H74         6.5010    3.1870    1.8800 hc        1 MOL      0.015448
    164 H75         6.6390    3.3960    0.1430 hc        1 MOL      0.015448
    165 H76         8.3160    5.1100    2.0640 hc        1 MOL      0.124629
    166 H77         6.7580    5.5740    1.7110 hc        1 MOL      0.124629
    167 N15         9.3420    0.8690    2.4790 n         1 MOL     -0.220663
    168 C54         9.7250    0.1210    3.6720 c3        1 MOL     -0.090318
    169 H78         9.5840   -0.9450    3.4930 h1        1 MOL      0.063271
    170 H79        10.7720    0.3150    3.9020 h1        1 MOL      0.063271
    171 H80         9.1040    0.4330    4.5110 h1        1 MOL      0.063271
    172 H81         9.6440    0.4920    1.5850 hn        1 MOL      0.214295
    173 Ca1         0.0360    3.4100   -1.7320 Ca        1 MOL      1.844673
    174 O23         1.7510    4.6640   -3.3620 oh        1 MOL     -0.837983
    175 H82         1.5100    5.4650   -3.8180 ho        1 MOL      0.418579
    176 H83         2.6930    4.5800   -3.4900 ho        1 MOL      0.418579
    177 O24        -0.6580    6.3410   -1.6600 oh        1 MOL     -0.837983
    178 H84        -0.4060    7.0650   -2.2400 ho        1 MOL      0.418579
    179 H85        -1.4200    6.6680   -1.1830 ho        1 MOL      0.418579
    180 O25         1.5020    5.0780   -0.2130 oh        1 MOL     -0.837983
    181 H86         2.4330    5.2500   -0.1000 ho        1 MOL      0.418579
    182 H87         1.0690    5.6330    0.4330 ho        1 MOL      0.418579
    183 O26         0.3700    2.1830    0.6030 oh        1 MOL     -0.837983
    184 H88         0.5380    1.2290    0.6310 ho        1 MOL      0.418579
    185 H89        -0.1240    2.3510    1.4060 ho        1 MOL      0.418579
    186 O27        -1.4880    4.0950   -3.9380 oh        1 MOL     -0.837983
    187 H90        -1.2560    4.0680   -4.8700 ho        1 MOL      0.418579
    188 H91        -2.4370    4.1960   -3.9330 ho        1 MOL      0.418579
    189 O28         2.4470    2.4060   -1.2730 oh        1 MOL     -0.837983
    190 H92         2.8040    2.0920   -2.1110 ho        1 MOL      0.418579
    191 H93         3.0400    2.0360   -0.6130 ho        1 MOL      0.418579
@<TRIPOS>BOND
     1    1    2 1   
     2    1    4 1   
     3    1    5 1   
     4    1    6 1   
     5    2    3 2   
     6    2    7 1   
     7    7    8 1   
     8    7   15 1   
     9    8    9 1   
    10    8   11 1   
    11    8   16 1   
    12    9   10 2   
    13    9   19 1   
    14   11   12 1   
    15   11   17 1   
    16   11   18 1   
    17   12   13 1   
    18   12   14 1   
    19   19   20 1   
    20   19   28 1   
    21   20   21 1   
    22   20   23 1   
    23   20   29 1   
    24   21   22 2   
    25   21   41 1   
    26   23   24 1   
    27   23   30 1   
    28   23   31 1   
    29   24   25 1   
    30   24   32 1   
    31   24   33 1   
    32   25   26 1   
    33   25   34 1   
    34   25   35 1   
    35   26   27 1   
    36   26   36 1   
    37   26   37 1   
    38   27   38 1   
    39   27   39 1   
    40   27   40 1   
    41   41   42 1   
    42   41   49 1   
    43   42   43 1   
    44   42   45 1   
    45   42   50 1   
    46   43   44 2   
    47   43   53 1   
    48   45   46 1   
    49   45   51 1   
    50   45   52 1   
    51   46   47 1   
    52   46   48 1   
    53   53   54 1   
    54   53   57 1   
    55   54   55 1   
    56   54   58 1   
    57   54   59 1   
    58   55   56 2   
    59   55   60 1   
    60   60   61 1   
    61   60   68 1   
    62   61   62 1   
    63   61   64 1   
    64   61   69 1   
    65   62   63 2   
    66   62   74 1   
    67   64   65 1   
    68   64   70 1   
    69   64   71 1   
    70   65   66 1   
    71   65   67 2   
    72   66   72 1   
    73   66   73 1   
    74   74   75 1   
    75   74   78 1   
    76   75   76 1   
    77   75   79 1   
    78   75   80 1   
    79   76   77 2   
    80   76   81 1   
    81   81   82 1   
    82   81   93 1   
    83   82   83 1   
    84   82   85 1   
    85   82   94 1   
    86   83   84 2   
    87   83  102 1   
    88   85   86 1   
    89   85   95 1   
    90   85   96 1   
    91   86   87 ar  
    92   86   88 ar  
    93   87   89 ar  
    94   87   97 1   
    95   88   90 ar  
    96   88   98 1   
    97   89   91 ar  
    98   89   99 1   
    99   90   91 ar  
   100   90  100 1   
   101   91   92 1   
   102   92  101 1   
   103  102  103 1   
   104  102  110 1   
   105  103  104 1   
   106  103  106 1   
   107  103  111 1   
   108  104  105 2   
   109  104  121 1   
   110  106  107 1   
   111  106  108 1   
   112  106  112 1   
   113  107  109 1   
   114  107  113 1   
   115  107  114 1   
   116  108  115 1   
   117  108  116 1   
   118  108  117 1   
   119  109  118 1   
   120  109  119 1   
   121  109  120 1   
   122  121  122 1   
   123  121  127 1   
   124  122  123 1   
   125  122  125 1   
   126  122  128 1   
   127  123  124 2   
   128  123  132 1   
   129  125  126 1   
   130  125  129 1   
   131  125  130 1   
   132  126  131 1   
   133  132  133 1   
   134  132  137 1   
   135  133  134 1   
   136  133  136 1   
   137  133  138 1   
   138  134  135 2   
   139  134  142 1   
   140  136  139 1   
   141  136  140 1   
   142  136  141 1   
   143  142  143 1   
   144  142  147 1   
   145  143  144 1   
   146  143  146 1   
   147  143  148 1   
   148  144  145 2   
   149  144  152 1   
   150  146  149 1   
   151  146  150 1   
   152  146  151 1   
   153  152  153 1   
   154  152  161 1   
   155  153  154 1   
   156  153  156 1   
   157  153  162 1   
   158  154  155 2   
   159  154  167 1   
   160  156  157 1   
   161  156  163 1   
   162  156  164 1   
   163  157  158 1   
   164  157  165 1   
   165  157  166 1   
   166  158  159 1   
   167  158  160 1   
   168  167  168 1   
   169  167  172 1   
   170  168  169 1   
   171  168  170 1   
   172  168  171 1   
   173  174  175 1   
   174  174  176 1   
   175  177  178 1   
   176  177  179 1   
   177  180  181 1   
   178  180  182 1   
   179  183  184 1   
   180  183  185 1   
   181  186  187 1   
   182  186  188 1   
   183  189  190 1   
   184  189  191 1   
@<TRIPOS>SUBSTRUCTURE
     1 MOL         1 TEMP              0 ****  ****    0 ROOT
