@<TRIPOS>MOLECULE
MOL
  192   187     1     0     0
SMALL
resp


@<TRIPOS>ATOM
      1 C1         -6.9880   -3.4230    4.3320 c3        1 MOL     -0.350914
      2 C2         -6.0870   -2.6820    3.2140 c         1 MOL      0.675483
      3 O1         -5.7750   -3.2330    2.1500 o         1 MOL     -0.579230
      4 H1         -7.2860   -2.7020    5.0940 hc        1 MOL      0.086617
      5 H2         -7.8770   -3.8440    3.8630 hc        1 MOL      0.086617
      6 H3         -6.4090   -4.2210    4.7960 hc        1 MOL      0.086617
      7 N1         -5.8890   -1.4420    3.4340 n         1 MOL     -0.402966
      8 C3         -5.3710   -0.4560    2.5020 c3        1 MOL      0.351743
      9 C4         -3.8850   -0.6530    2.1940 c         1 MOL     -0.050727
     10 O2         -3.3820    0.0950    1.3740 o         1 MOL     -0.101182
     11 C5         -5.5730    1.0170    2.9280 c3        1 MOL     -0.080748
     12 C6         -7.0760    1.3470    2.9440 c         1 MOL      0.609908
     13 O3         -7.8200    1.2550    3.9410 o         1 MOL     -0.673940
     14 O4         -7.4590    1.8360    1.8280 o         1 MOL     -0.673940
     15 H4         -6.1090   -1.0260    4.3240 hn        1 MOL      0.217008
     16 H5         -5.8590   -0.6380    1.5410 h1        1 MOL      0.023886
     17 H6         -5.0590    1.7260    2.2880 hc        1 MOL     -0.017574
     18 H7         -5.1400    1.1650    3.9220 hc        1 MOL     -0.017574
     19 N2         -3.1010   -1.5790    2.8370 n         1 MOL     -0.202099
     20 C7         -1.6200   -1.5280    2.8110 c3        1 MOL      0.104433
     21 C8         -1.0110   -2.7630    2.1060 c         1 MOL      0.489850
     22 O5         -1.2950   -3.9100    2.4850 o         1 MOL     -0.530484
     23 C9         -1.0870   -1.2240    4.2410 c3        1 MOL     -0.177287
     24 C10        -1.3900    0.1440    4.7380 c3        1 MOL      0.295766
     25 C11        -0.5740    0.4790    6.0060 c3        1 MOL     -0.130412
     26 C12        -1.0670    1.7900    6.6440 c3        1 MOL      0.118492
     27 N3         -0.4870    3.0160    6.0200 n4        1 MOL     -0.530208
     28 H8         -3.5420   -2.1830    3.5120 hn        1 MOL      0.199065
     29 H9         -1.4440   -0.7260    2.0950 h1        1 MOL     -0.006328
     30 H10        -0.0240   -1.4620    4.2710 hc        1 MOL      0.042553
     31 H11        -1.5720   -1.8350    5.0000 hc        1 MOL      0.042553
     32 H12        -2.4610    0.2590    4.8300 hc        1 MOL     -0.053973
     33 H13        -1.0860    0.9250    4.0390 hc        1 MOL     -0.053973
     34 H14         0.4980    0.4080    5.8580 hc        1 MOL      0.052362
     35 H15        -0.9010   -0.2710    6.7380 hc        1 MOL      0.052362
     36 H16        -0.7240    1.6670    7.6670 hx        1 MOL      0.061610
     37 H17        -2.1530    1.7800    6.7760 hx        1 MOL      0.061610
     38 H18         0.5140    2.9890    6.1110 hn        1 MOL      0.370429
     39 H19        -0.7590    2.9910    5.0470 hn        1 MOL      0.370429
     40 H20        -0.7560    3.9060    6.4150 hn        1 MOL      0.370429
     41 N4         -0.0050   -2.5390    1.2420 n         1 MOL     -0.119640
     42 C13         0.6030   -1.2480    0.8220 c3        1 MOL     -0.502170
     43 C14         1.1300   -0.2530    1.9200 c         1 MOL      0.718051
     44 O6          0.5770    0.7790    2.2140 o         1 MOL     -0.662791
     45 C15        -0.1650   -0.5250   -0.2800 c3        1 MOL     -0.315446
     46 C16        -0.3460   -1.3990   -1.5240 c         1 MOL      0.673888
     47 O7          0.3590   -2.4440   -1.6640 o         1 MOL     -0.678459
     48 O8         -1.1660   -1.0280   -2.3580 o         1 MOL     -0.678459
     49 H21         0.1170   -3.3490    0.6460 hn        1 MOL      0.117813
     50 H22         1.5550   -1.3680    0.3070 h1        1 MOL      0.148487
     51 H23         0.4890    0.3130   -0.5660 hc        1 MOL      0.197197
     52 H24        -1.1400   -0.1200   -0.0320 hc        1 MOL      0.197197
     53 N5          2.1970   -0.5610    2.5820 n         1 MOL     -0.275919
     54 C17         3.0360   -1.6480    2.3190 c3        1 MOL      0.006170
     55 C18         4.1560   -1.8000    3.4380 c         1 MOL      0.546859
     56 O9          4.2780   -1.0470    4.3550 o         1 MOL     -0.521380
     57 H25         2.4890    0.1000    3.2850 hn        1 MOL      0.238031
     58 H26         3.4770   -1.4890    1.3380 h1        1 MOL      0.055433
     59 H27         2.4260   -2.5510    2.2930 h1        1 MOL      0.055433
     60 N6          5.0650   -2.7700    3.2610 n         1 MOL     -0.520272
     61 C19         5.2260   -3.5760    2.0580 c3        1 MOL      0.194535
     62 C20         5.8950   -2.7620    0.9170 c         1 MOL      0.136549
     63 O10         6.5450   -1.7090    1.1420 o         1 MOL     -0.310273
     64 C21         6.1010   -4.7270    2.4850 c3        1 MOL     -0.254173
     65 C22         7.5470   -4.3470    2.7590 c         1 MOL      0.773870
     66 O11         8.3890   -4.5670    1.8720 o         1 MOL     -0.642967
     67 O12         7.9060   -3.8180    3.8250 o         1 MOL     -0.642967
     68 H28         5.9060   -2.6930    3.8110 hn        1 MOL      0.329912
     69 H29         4.2580   -4.0370    1.8360 h1        1 MOL      0.037375
     70 H30         6.0950   -5.3720    1.6020 hc        1 MOL      0.032407
     71 H31         5.6850   -5.2090    3.3680 hc        1 MOL      0.032407
     72 N7          5.9730   -3.4590   -0.2310 n         1 MOL     -0.134808
     73 C23         6.9000   -3.2130   -1.3280 c3        1 MOL     -0.309651
     74 C24         6.6510   -1.8520   -2.1100 c         1 MOL      0.389943
     75 O13         7.5100   -1.1830   -2.7290 o         1 MOL     -0.537157
     76 H32         5.3190   -4.2290   -0.2590 hn        1 MOL      0.169622
     77 H33         6.7960   -4.0110   -2.0630 h1        1 MOL      0.175009
     78 H34         7.9130   -3.2090   -0.9320 h1        1 MOL      0.175009
     79 N8          5.4620   -1.3270   -1.9880 n         1 MOL     -0.075235
     80 C25         5.1540    0.1070   -2.3790 c3        1 MOL      0.011080
     81 C26         5.3630    1.0830   -1.2000 c         1 MOL      0.337762
     82 O14         5.0040    0.8230   -0.0490 o         1 MOL     -0.531173
     83 C27         3.6650    0.2970   -2.9090 c3        1 MOL      0.302793
     84 C28         3.4700   -0.4890   -4.2570 c3        1 MOL      0.112453
     85 O15         3.3260    1.6250   -3.1430 oh        1 MOL     -0.614383
     86 H35         4.6610   -1.8610   -1.6680 hn        1 MOL      0.081553
     87 H36         5.8900    0.4400   -3.1130 h1        1 MOL      0.056012
     88 H37         2.9480   -0.1160   -2.2050 h1        1 MOL      0.044151
     89 H38         2.5490    1.7620   -2.6050 ho        1 MOL      0.379985
     90 H39         3.8840   -0.0310   -5.1600 hc        1 MOL     -0.054117
     91 H40         3.8550   -1.4990   -4.1360 hc        1 MOL     -0.054117
     92 H41         2.4220   -0.6630   -4.4910 hc        1 MOL     -0.054117
     93 N9          6.0060    2.1950   -1.4420 n         1 MOL     -0.053013
     94 C29         6.1170    3.2990   -0.4280 c3        1 MOL     -0.384458
     95 C30         4.8050    4.1830   -0.2310 c         1 MOL      0.631841
     96 O16         4.5700    4.6310    0.9090 o         1 MOL     -0.576354
     97 C31         7.3610    4.1790   -0.6100 c3        1 MOL      0.257290
     98 C32         8.5410    3.5730   -1.4430 c3        1 MOL      0.011026
     99 C33         7.8730    4.7220    0.7420 c3        1 MOL     -0.139035
    100 C34         9.1510    2.3610   -0.8180 c3        1 MOL     -0.414164
    101 H42         6.3220    2.4340   -2.3640 hn        1 MOL      0.219101
    102 H43         6.2850    2.9040    0.5750 h1        1 MOL      0.187783
    103 H44         7.0210    5.0040   -1.2370 hc        1 MOL     -0.071760
    104 H45         9.3210    4.3150   -1.6030 hc        1 MOL      0.006124
    105 H46         8.2820    3.2860   -2.4720 hc        1 MOL      0.006124
    106 H47         8.6560    5.4620    0.5630 hc        1 MOL      0.031614
    107 H48         7.0700    5.2740    1.2470 hc        1 MOL      0.031614
    108 H49         8.2290    3.8970    1.3620 hc        1 MOL      0.031614
    109 H50         9.7310    1.8120   -1.5520 hc        1 MOL      0.128386
    110 H51         9.6240    2.7490    0.0800 hc        1 MOL      0.128386
    111 H52         8.3630    1.7140   -0.4230 hc        1 MOL      0.128386
    112 N10         3.8220    4.2210   -1.1270 n         1 MOL     -0.166411
    113 C35         2.4920    4.8640   -0.9110 c3        1 MOL     -0.310907
    114 C36         1.3570    3.7770   -0.7080 c         1 MOL      0.741345
    115 O17         1.4200    2.6830   -1.2790 o         1 MOL     -0.570318
    116 C37         2.2340    5.8320   -2.1900 c3        1 MOL      0.457636
    117 C38         2.1090    5.1430   -3.5230 c3        1 MOL     -0.310255
    118 O18         3.1800    6.8280   -2.3610 oh        1 MOL     -0.652630
    119 H53         4.0310    3.6750   -1.9560 hn        1 MOL      0.131050
    120 H54         2.5500    5.5030   -0.0380 h1        1 MOL      0.146292
    121 H55         1.2330    6.2710   -2.0830 h1        1 MOL     -0.046870
    122 H56         2.8650    7.4840   -2.9870 ho        1 MOL      0.408847
    123 H57         1.5600    4.2210   -3.3410 hc        1 MOL      0.079978
    124 H58         1.5890    5.7730   -4.2390 hc        1 MOL      0.079978
    125 H59         3.0870    4.9530   -3.9650 hc        1 MOL      0.079978
    126 N11         0.3860    3.9980    0.1010 n         1 MOL     -0.575625
    127 C39        -0.7550    3.0420    0.4030 c3        1 MOL     -0.028222
    128 C40        -1.9420    3.2180   -0.5980 c         1 MOL      0.533219
    129 O19        -2.0950    4.2620   -1.1780 o         1 MOL     -0.534747
    130 C41        -1.3030    3.2300    1.9040 c3        1 MOL      0.500842
    131 C42        -2.0620    4.5310    2.1320 c3        1 MOL     -0.232180
    132 O20        -0.1890    3.2410    2.7410 oh        1 MOL     -0.715278
    133 H60         0.5840    4.7300    0.7790 hn        1 MOL      0.322131
    134 H61        -0.3590    2.0300    0.4340 h1        1 MOL      0.122131
    135 H62        -1.9700    2.4410    2.2450 h1        1 MOL     -0.059493
    136 H63         0.3330    2.4750    2.4870 ho        1 MOL      0.431758
    137 H64        -3.0070    4.5340    1.5740 hc        1 MOL      0.053220
    138 H65        -2.3920    4.6580    3.1600 hc        1 MOL      0.053220
    139 H66        -1.4190    5.3630    1.8650 hc        1 MOL      0.053220
    140 N12        -2.8550    2.2020   -0.7060 n         1 MOL     -0.105668
    141 C43        -3.9800    2.2500   -1.6520 c3        1 MOL     -0.222644
    142 C44        -4.3100    0.8310   -2.1790 c         1 MOL      0.796317
    143 O21        -4.6790    0.6780   -3.3140 o         1 MOL     -0.689229
    144 C45        -5.1990    2.8650   -0.9910 c3        1 MOL     -0.104166
    145 C46        -6.3860    3.0260   -1.9910 c3        1 MOL     -0.331934
    146 C47        -7.5100    3.9460   -1.5140 c3        1 MOL      0.250512
    147 C48        -8.6670    3.9610   -2.5050 c3        1 MOL     -0.077323
    148 N13        -9.5880    5.1650   -2.4540 n4        1 MOL     -0.354915
    149 H67        -2.7270    1.3240   -0.2290 hn        1 MOL     -0.179174
    150 H68        -3.6090    2.8110   -2.5110 h1        1 MOL      0.126741
    151 H69        -4.9970    3.8080   -0.4760 hc        1 MOL      0.113078
    152 H70        -5.6680    2.2400   -0.2380 hc        1 MOL      0.113078
    153 H71        -6.8640    2.0570   -2.1600 hc        1 MOL      0.092853
    154 H72        -6.0260    3.3910   -2.9570 hc        1 MOL      0.092853
    155 H73        -7.0320    4.9120   -1.3040 hc        1 MOL     -0.017790
    156 H74        -7.8350    3.5770   -0.5410 hc        1 MOL     -0.017790
    157 H75        -9.2680    3.0720   -2.3260 hx        1 MOL      0.120601
    158 H76        -8.3050    3.8990   -3.5330 hx        1 MOL      0.120601
    159 H77       -10.1170    5.3230   -1.6020 hn        1 MOL      0.317882
    160 H78        -9.1100    6.0320   -2.6650 hn        1 MOL      0.317882
    161 H79       -10.3380    5.0030   -3.1110 hn        1 MOL      0.317882
    162 N14        -4.2950   -0.1780   -1.3430 n         1 MOL     -0.146758
    163 C49        -4.4930   -1.5480   -1.7870 c3        1 MOL      0.092954
    164 C50        -6.0300   -1.8380   -1.8420 c         1 MOL      0.388553
    165 O22        -6.7450   -1.5770   -0.8830 o         1 MOL     -0.498310
    166 C51        -3.6630   -2.5870   -0.9390 c3        1 MOL      0.835978
    167 C52        -4.0760   -4.0720   -1.2410 c3        1 MOL     -0.680990
    168 C53        -3.5170   -4.4570   -2.5880 c         1 MOL      0.802983
    169 O23        -4.3830   -4.4240   -3.5220 o         1 MOL     -0.769642
    170 O24        -2.3290   -4.8330   -2.7150 o         1 MOL     -0.769642
    171 H80        -4.1000    0.0910   -0.3880 hn        1 MOL      0.002842
    172 H81        -4.2120   -1.6160   -2.8410 h1        1 MOL     -0.010882
    173 H82        -3.8070   -2.4680    0.1370 hc        1 MOL     -0.228834
    174 H83        -2.6380   -2.5300   -1.2930 hc        1 MOL     -0.228834
    175 H84        -5.1440   -4.2420   -1.1520 hc        1 MOL      0.167431
    176 H85        -3.6300   -4.6940   -0.4790 hc        1 MOL      0.167431
    177 N15        -6.4240   -2.3430   -3.0000 n         1 MOL     -0.423938
    178 C54        -7.8360   -2.5750   -3.3110 c3        1 MOL     -0.053253
    179 H86        -7.9840   -2.5120   -4.3900 h1        1 MOL      0.058385
    180 H87        -8.1270   -3.5660   -2.9630 h1        1 MOL      0.058385
    181 H88        -8.4470   -1.8220   -2.8150 h1        1 MOL      0.058385
    182 H89        -5.7270   -2.7790   -3.5870 hn        1 MOL      0.436817
    183 Ca1         0.0770   -4.6950   -3.0350 Ca        1 MOL      1.568389
    184 O25        -1.4200   -5.4840   -5.5540 oh        1 MOL     -0.792420
    185 H90        -1.4930   -6.3160   -5.1010 ho        1 MOL      0.390696
    186 H91        -2.3200   -5.2540   -5.7860 ho        1 MOL      0.390696
    187 O26         1.5620   -3.2920   -4.8050 oh        1 MOL     -0.792420
    188 H92         2.1420   -2.5470   -4.6470 ho        1 MOL      0.390696
    189 H93         1.5060   -3.3500   -5.7640 ho        1 MOL      0.390696
    190 O27        -1.1690   -2.4210   -4.4300 oh        1 MOL     -0.792420
    191 H94        -1.2490   -1.9070   -3.6240 ho        1 MOL      0.390696
    192 H95        -0.8790   -1.7790   -5.0880 ho        1 MOL      0.390696
@<TRIPOS>BOND
     1    1    2 1   
     2    1    4 1   
     3    1    5 1   
     4    1    6 1   
     5    2    3 2   
     6    2    7 1   
     7    7    8 1   
     8    7   15 1   
     9    8    9 1   
    10    8   11 1   
    11    8   16 1   
    12    9   10 2   
    13    9   19 1   
    14   11   12 1   
    15   11   17 1   
    16   11   18 1   
    17   12   13 1   
    18   12   14 1   
    19   19   20 1   
    20   19   28 1   
    21   20   21 1   
    22   20   23 1   
    23   20   29 1   
    24   21   22 2   
    25   21   41 1   
    26   23   24 1   
    27   23   30 1   
    28   23   31 1   
    29   24   25 1   
    30   24   32 1   
    31   24   33 1   
    32   25   26 1   
    33   25   34 1   
    34   25   35 1   
    35   26   27 1   
    36   26   36 1   
    37   26   37 1   
    38   27   38 1   
    39   27   39 1   
    40   27   40 1   
    41   41   42 1   
    42   41   49 1   
    43   42   43 1   
    44   42   45 1   
    45   42   50 1   
    46   43   44 2   
    47   43   53 1   
    48   45   46 1   
    49   45   51 1   
    50   45   52 1   
    51   46   47 1   
    52   46   48 1   
    53   53   54 1   
    54   53   57 1   
    55   54   55 1   
    56   54   58 1   
    57   54   59 1   
    58   55   56 2   
    59   55   60 1   
    60   60   61 1   
    61   60   68 1   
    62   61   62 1   
    63   61   64 1   
    64   61   69 1   
    65   62   63 2   
    66   62   72 1   
    67   64   65 1   
    68   64   70 1   
    69   64   71 1   
    70   65   66 1   
    71   65   67 1   
    72   72   73 1   
    73   72   76 1   
    74   73   74 1   
    75   73   77 1   
    76   73   78 1   
    77   74   75 2   
    78   74   79 1   
    79   79   80 1   
    80   79   86 1   
    81   80   81 1   
    82   80   83 1   
    83   80   87 1   
    84   81   82 2   
    85   81   93 1   
    86   83   84 1   
    87   83   85 1   
    88   83   88 1   
    89   84   90 1   
    90   84   91 1   
    91   84   92 1   
    92   85   89 1   
    93   93   94 1   
    94   93  101 1   
    95   94   95 1   
    96   94   97 1   
    97   94  102 1   
    98   95   96 2   
    99   95  112 1   
   100   97   98 1   
   101   97   99 1   
   102   97  103 1   
   103   98  100 1   
   104   98  104 1   
   105   98  105 1   
   106   99  106 1   
   107   99  107 1   
   108   99  108 1   
   109  100  109 1   
   110  100  110 1   
   111  100  111 1   
   112  112  113 1   
   113  112  119 1   
   114  113  114 1   
   115  113  116 1   
   116  113  120 1   
   117  114  115 2   
   118  114  126 1   
   119  116  117 1   
   120  116  118 1   
   121  116  121 1   
   122  117  123 1   
   123  117  124 1   
   124  117  125 1   
   125  118  122 1   
   126  126  127 1   
   127  126  133 1   
   128  127  128 1   
   129  127  130 1   
   130  127  134 1   
   131  128  129 2   
   132  128  140 1   
   133  130  131 1   
   134  130  132 1   
   135  130  135 1   
   136  131  137 1   
   137  131  138 1   
   138  131  139 1   
   139  132  136 1   
   140  140  141 1   
   141  140  149 1   
   142  141  142 1   
   143  141  144 1   
   144  141  150 1   
   145  142  143 2   
   146  142  162 1   
   147  144  145 1   
   148  144  151 1   
   149  144  152 1   
   150  145  146 1   
   151  145  153 1   
   152  145  154 1   
   153  146  147 1   
   154  146  155 1   
   155  146  156 1   
   156  147  148 1   
   157  147  157 1   
   158  147  158 1   
   159  148  159 1   
   160  148  160 1   
   161  148  161 1   
   162  162  163 1   
   163  162  171 1   
   164  163  164 1   
   165  163  166 1   
   166  163  172 1   
   167  164  165 2   
   168  164  177 1   
   169  166  167 1   
   170  166  173 1   
   171  166  174 1   
   172  167  168 1   
   173  167  175 1   
   174  167  176 1   
   175  168  169 1   
   176  168  170 1   
   177  177  178 1   
   178  177  182 1   
   179  178  179 1   
   180  178  180 1   
   181  178  181 1   
   182  184  185 1   
   183  184  186 1   
   184  187  188 1   
   185  187  189 1   
   186  190  191 1   
   187  190  192 1   
@<TRIPOS>SUBSTRUCTURE
     1 MOL         1 TEMP              0 ****  ****    0 ROOT
