@<TRIPOS>MOLECULE
MOL
  192   187     1     0     0
SMALL
resp


@<TRIPOS>ATOM
      1 C1          9.8610    0.7830    1.6020 c3        1 MOL     -0.517550
      2 C2          8.6090    0.2360    0.9440 c         1 MOL      0.769544
      3 O1          7.5650    0.1130    1.5900 o         1 MOL     -0.623093
      4 H1         10.4740   -0.0440    1.9600 hc        1 MOL      0.132789
      5 H2         10.4280    1.3670    0.8770 hc        1 MOL      0.132789
      6 H3          9.5830    1.4180    2.4430 hc        1 MOL      0.132789
      7 N1          8.6680    0.0410   -0.3850 n         1 MOL     -0.581661
      8 C3          7.5360   -0.1600   -1.3020 c3        1 MOL      0.031145
      9 C4          6.9290   -1.5670   -1.2390 c         1 MOL      0.501511
     10 O2          6.4310   -2.1860   -2.2300 o         1 MOL     -0.449090
     11 C5          7.7020    0.2620   -2.8030 c3        1 MOL     -0.183070
     12 C6          8.8110   -0.5090   -3.5840 c         1 MOL      0.681674
     13 O3          9.2010   -0.0060   -4.6670 o         1 MOL     -0.631443
     14 O4          9.2400   -1.6180   -3.1370 o         1 MOL     -0.631443
     15 H4          9.5630    0.1980   -0.8360 hn        1 MOL      0.318730
     16 H5          6.7300    0.4350   -0.8720 h1        1 MOL      0.123118
     17 H6          8.0100    1.3100   -2.8600 hc        1 MOL      0.068109
     18 H7          6.7140    0.1630   -3.2430 hc        1 MOL      0.068109
     19 N2          6.8810   -2.0980   -0.0340 n         1 MOL     -0.439288
     20 C7          6.2320   -3.3280    0.4620 c3        1 MOL      0.176824
     21 C8          4.7710   -3.4900    0.0020 c         1 MOL      0.478711
     22 O5          4.5320   -4.5780   -0.4800 o         1 MOL     -0.532507
     23 C9          6.3650   -3.5000    1.9480 c3        1 MOL     -0.047335
     24 C10         7.9070   -3.5820    2.3140 c3        1 MOL      0.064769
     25 C11         8.2590   -3.9280    3.7920 c3        1 MOL      0.053182
     26 C12         9.7920   -3.9430    4.1370 c3        1 MOL     -0.016318
     27 N3         10.0210   -4.1460    5.5740 n4        1 MOL     -0.128657
     28 H8          7.2880   -1.5060    0.6740 hn        1 MOL      0.181677
     29 H9          6.6950   -4.2570    0.1180 h1        1 MOL      0.057805
     30 H10         5.8430   -4.4000    2.2760 hc        1 MOL      0.023793
     31 H11         6.0410   -2.6580    2.5490 hc        1 MOL      0.023793
     32 H12         8.4330   -2.6450    2.1450 hc        1 MOL     -0.006412
     33 H13         8.3520   -4.3440    1.6750 hc        1 MOL     -0.006412
     34 H14         7.7200   -4.8490    4.0160 hc        1 MOL     -0.006678
     35 H15         7.7610   -3.1650    4.3840 hc        1 MOL     -0.006678
     36 H16        10.1840   -2.9980    3.7670 hx        1 MOL      0.075890
     37 H17        10.2050   -4.7870    3.5870 hx        1 MOL      0.075890
     38 H18         9.5940   -3.3500    6.0290 hn        1 MOL      0.216735
     39 H19         9.5190   -4.9540    5.9050 hn        1 MOL      0.216735
     40 H20        10.9900   -4.1810    5.8590 hn        1 MOL      0.216735
     41 N4          3.7940   -2.5580    0.1940 n         1 MOL     -0.421510
     42 C13         3.7500   -1.2940    0.9250 c3        1 MOL     -0.038479
     43 C14         3.8000    0.0050   -0.0230 c         1 MOL      0.128266
     44 O6          3.7980   -0.0540   -1.2520 o         1 MOL     -0.387715
     45 C15         2.4720   -1.3490    1.7190 c3        1 MOL     -0.195275
     46 C16         1.2130   -1.7230    0.9960 c         1 MOL      0.757763
     47 O7          1.0000   -1.2420   -0.1130 o         1 MOL     -0.680014
     48 O8          0.3770   -2.4450    1.6180 o         1 MOL     -0.680014
     49 H21         3.0040   -2.7860   -0.4080 hn        1 MOL      0.368547
     50 H22         4.6190   -1.2550    1.5790 h1        1 MOL      0.146568
     51 H23         2.3650   -0.4310    2.3030 hc        1 MOL      0.033654
     52 H24         2.5810   -2.2150    2.3860 hc        1 MOL      0.033654
     53 N5          3.8950    1.1830    0.5410 n         1 MOL     -0.152413
     54 C17         3.9980    2.4580   -0.1050 c3        1 MOL      0.015174
     55 C18         2.7090    2.7740   -0.8300 c         1 MOL      0.581215
     56 O9          1.7210    2.0200   -0.8580 o         1 MOL     -0.505645
     57 H25         4.0900    1.0790    1.5270 hn        1 MOL      0.242224
     58 H26         4.9040    2.3810   -0.7090 h1        1 MOL      0.025968
     59 H27         3.9700    3.2420    0.6400 h1        1 MOL      0.025968
     60 N6          2.7120    3.9870   -1.4410 n         1 MOL     -0.470633
     61 C19         1.6410    4.6450   -2.1490 c3        1 MOL      0.261063
     62 C20         1.8980    6.1700   -2.1620 c         1 MOL      0.386698
     63 O10         3.0690    6.5900   -2.1070 o         1 MOL     -0.531677
     64 C21         1.5260    4.1570   -3.6200 c3        1 MOL     -0.365484
     65 C22         1.2820    2.6090   -3.7560 c         1 MOL      0.716611
     66 O11         2.1910    1.8560   -4.2320 o         1 MOL     -0.678504
     67 O12         0.1800    2.1760   -3.4080 o         1 MOL     -0.678504
     68 H28         3.5550    4.5380   -1.4960 hn        1 MOL      0.278263
     69 H29         0.7490    4.4300   -1.5520 h1        1 MOL      0.034397
     70 H30         2.4860    4.3510   -4.1010 hc        1 MOL      0.097886
     71 H31         0.7210    4.6620   -4.1440 hc        1 MOL      0.097886
     72 N7          0.9560    7.0580   -2.3110 n         1 MOL     -0.341541
     73 C23        -0.5040    6.8530   -2.3220 c3        1 MOL     -0.161907
     74 C24        -1.0670    6.2840   -0.9970 c         1 MOL      0.695605
     75 O13        -0.3920    6.4070   -0.0150 o         1 MOL     -0.523301
     76 H32         1.3360    7.9990   -2.2390 hn        1 MOL      0.305316
     77 H33        -0.8460    6.1450   -3.0670 h1        1 MOL      0.090705
     78 H34        -1.0000    7.8080   -2.4960 h1        1 MOL      0.090705
     79 N8         -2.2400    5.6530   -1.0540 n         1 MOL     -0.700620
     80 C25        -2.7630    4.8340    0.0540 c3        1 MOL      0.033553
     81 C26        -1.8150    3.7810    0.5570 c         1 MOL      0.916151
     82 O14        -1.2060    2.9540   -0.2120 o         1 MOL     -0.777501
     83 C27        -4.2150    4.3560   -0.2060 c3        1 MOL      0.241630
     84 C28        -4.7150    3.5420    0.9570 c3        1 MOL     -0.226986
     85 O15        -4.2820    3.4000   -1.2650 oh        1 MOL     -0.566940
     86 H35        -2.6690    5.4910   -1.9540 hn        1 MOL      0.346751
     87 H36        -2.8610    5.4690    0.9480 h1        1 MOL      0.045614
     88 H37        -4.8540    5.1890   -0.4700 h1        1 MOL      0.051505
     89 H38        -4.7140    3.8700   -1.9830 ho        1 MOL      0.396075
     90 H39        -4.2440    2.5730    1.0730 hc        1 MOL      0.053714
     91 H40        -4.6150    4.2130    1.8080 hc        1 MOL      0.053714
     92 H41        -5.7480    3.2640    0.7490 hc        1 MOL      0.053714
     93 N9         -1.6290    3.7330    1.8890 n         1 MOL     -0.571739
     94 C29        -0.8750    2.7020    2.7070 c3        1 MOL      0.044412
     95 C30        -1.2900    1.1990    2.3610 c         1 MOL      0.337782
     96 O16        -0.8720    0.7030    1.3240 o         1 MOL     -0.443033
     97 C31         0.6790    2.8430    2.4730 c3        1 MOL      0.315185
     98 C32         1.2830    4.2610    2.6370 c3        1 MOL     -0.291893
     99 C33         1.2680    1.8990    3.5910 c3        1 MOL     -0.636409
    100 C34         0.8670    4.9670    3.9850 c3        1 MOL     -0.164495
    101 H42        -1.9860    4.5110    2.4210 hn        1 MOL      0.291068
    102 H43        -1.0910    2.8270    3.7650 h1        1 MOL      0.040598
    103 H44         0.9360    2.3790    1.5340 hc        1 MOL     -0.041182
    104 H45         0.9230    4.7130    1.7120 hc        1 MOL      0.112577
    105 H46         2.3740    4.2970    2.5960 hc        1 MOL      0.112577
    106 H47         0.7670    0.9400    3.6290 hc        1 MOL      0.164898
    107 H48         2.3190    1.7550    3.3290 hc        1 MOL      0.164898
    108 H49         1.1980    2.3390    4.5890 hc        1 MOL      0.164898
    109 H50         1.4610    4.4830    4.7570 hc        1 MOL      0.053621
    110 H51         1.0260    6.0480    3.9300 hc        1 MOL      0.053621
    111 H52        -0.1960    4.7620    4.0680 hc        1 MOL      0.053621
    112 N10        -2.0240    0.5840    3.2560 n         1 MOL     -0.319697
    113 C35        -2.6320   -0.7500    3.1940 c3        1 MOL      0.004394
    114 C36        -4.1480   -0.8440    3.1380 c         1 MOL      0.421492
    115 O17        -4.6710   -1.9720    3.1960 o         1 MOL     -0.550422
    116 C37        -1.9460   -1.6930    4.1800 c3        1 MOL      0.438077
    117 C38        -2.0890   -1.2930    5.6990 c3        1 MOL     -0.074258
    118 O18        -0.5680   -1.6150    4.0110 oh        1 MOL     -0.673098
    119 H53        -2.3720    1.1970    3.9730 hn        1 MOL      0.288273
    120 H54        -2.2470   -1.1560    2.2660 h1        1 MOL      0.054845
    121 H55        -2.3510   -2.7060    4.0550 h1        1 MOL     -0.009123
    122 H56        -0.2480   -1.9080    3.1580 ho        1 MOL      0.402676
    123 H57        -2.9670   -1.7820    6.1320 hc        1 MOL     -0.001748
    124 H58        -1.2640   -1.6240    6.3350 hc        1 MOL     -0.001748
    125 H59        -2.2970   -0.2280    5.6790 hc        1 MOL     -0.001748
    126 N11        -4.9000    0.2330    2.9360 n         1 MOL     -0.139800
    127 C39        -6.3660    0.1710    2.6510 c3        1 MOL     -0.162447
    128 C40        -6.5610   -0.3510    1.2430 c         1 MOL      0.449998
    129 O19        -6.5320    0.4050    0.2160 o         1 MOL     -0.509678
    130 C41        -7.1080    1.4730    2.8280 c3        1 MOL      0.485468
    131 C42        -8.5750    1.2230    2.9630 c3        1 MOL     -0.513476
    132 O20        -6.6550    2.0070    4.0410 oh        1 MOL     -0.651052
    133 H60        -4.4540    1.1320    3.0620 hn        1 MOL      0.141176
    134 H61        -6.8260   -0.5150    3.3480 h1        1 MOL      0.113028
    135 H62        -6.8670    2.1830    2.0380 h1        1 MOL     -0.032206
    136 H63        -7.1290    2.8120    4.2830 ho        1 MOL      0.406716
    137 H64        -9.0300    2.2000    3.1250 hc        1 MOL      0.130219
    138 H65        -8.9830    0.7740    2.0670 hc        1 MOL      0.130219
    139 H66        -8.7710    0.5300    3.7880 hc        1 MOL      0.130219
    140 N12        -6.5990   -1.6970    1.1170 n         1 MOL     -0.315153
    141 C43        -6.4540   -2.5330   -0.1240 c3        1 MOL      0.084323
    142 C44        -5.1770   -2.2320   -0.9440 c         1 MOL      0.463744
    143 O21        -4.8330   -1.0820   -1.2600 o         1 MOL     -0.448803
    144 C45        -7.6640   -2.3950   -1.0480 c3        1 MOL     -0.355660
    145 C46        -9.0000   -2.6140   -0.2750 c3        1 MOL      0.001975
    146 C47       -10.1930   -2.4780   -1.2090 c3        1 MOL      0.182354
    147 C48       -11.4990   -2.5590   -0.4400 c3        1 MOL      0.031560
    148 N13       -12.6700   -2.5110   -1.3090 n4        1 MOL     -0.139806
    149 H67        -6.6580   -2.1560    2.0090 hn        1 MOL      0.237456
    150 H68        -6.4310   -3.5520    0.2610 h1        1 MOL      0.069183
    151 H69        -7.5340   -3.0920   -1.8660 hc        1 MOL      0.140719
    152 H70        -7.6690   -1.3960   -1.4790 hc        1 MOL      0.140719
    153 H71        -9.1350   -1.8300    0.4680 hc        1 MOL      0.016053
    154 H72        -9.0260   -3.6020    0.1810 hc        1 MOL      0.016053
    155 H73       -10.1530   -3.2980   -1.9310 hc        1 MOL     -0.022076
    156 H74       -10.1160   -1.5530   -1.7690 hc        1 MOL     -0.022076
    157 H75       -11.5950   -1.6720    0.1840 hx        1 MOL      0.043077
    158 H76       -11.5020   -3.4490    0.2000 hx        1 MOL      0.043077
    159 H77       -12.7470   -3.3270   -1.8960 hn        1 MOL      0.176086
    160 H78       -13.5590   -2.5150   -0.8250 hn        1 MOL      0.176086
    161 H79       -12.6590   -1.7110   -1.9270 hn        1 MOL      0.176086
    162 N14        -4.5030   -3.3050   -1.3120 n         1 MOL     -0.463623
    163 C49        -3.1880   -3.3410   -1.9600 c3        1 MOL      0.162980
    164 C50        -2.0230   -2.8070   -1.1180 c         1 MOL      0.598813
    165 O22        -1.4090   -1.7700   -1.3820 o         1 MOL     -0.699661
    166 C51        -2.8910   -4.7080   -2.6520 c3        1 MOL     -0.038035
    167 C52        -3.6450   -4.8050   -4.0350 c3        1 MOL     -0.218680
    168 C53        -3.3120   -6.0210   -4.7390 c         1 MOL      0.721589
    169 O23        -4.1530   -6.9160   -4.8030 o         1 MOL     -0.623532
    170 O24        -2.1830   -6.3200   -5.2620 o         1 MOL     -0.623532
    171 H80        -5.0230   -4.1730   -1.2370 hn        1 MOL      0.297487
    172 H81        -3.1670   -2.5730   -2.7310 h1        1 MOL      0.058169
    173 H82        -3.1740   -5.4590   -1.9260 hc        1 MOL      0.049632
    174 H83        -1.8450   -4.7810   -2.9480 hc        1 MOL      0.049632
    175 H84        -3.3620   -4.0130   -4.7250 hc        1 MOL      0.032481
    176 H85        -4.7290   -4.7890   -3.9300 hc        1 MOL      0.032481
    177 N15        -1.7050   -3.4490    0.0060 n         1 MOL     -0.385801
    178 C54        -2.1710   -4.7370    0.4810 c3        1 MOL     -0.003390
    179 H86        -1.9330   -4.8420    1.5390 h1        1 MOL      0.030117
    180 H87        -3.2510   -4.8070    0.3430 h1        1 MOL      0.030117
    181 H88        -1.6800   -5.5310   -0.0810 h1        1 MOL      0.030117
    182 H89        -0.9880   -2.9520    0.5200 hn        1 MOL      0.342418
    183 Ca1        -0.4450    0.6080   -1.4320 Ca        1 MOL      1.800772
    184 O25        -1.5500   -0.0330   -3.8240 oh        1 MOL     -0.875525
    185 H90        -1.3990   -0.9790   -3.9470 ho        1 MOL      0.416106
    186 H91        -1.1080    0.3840   -4.5620 ho        1 MOL      0.416106
    187 O26        -3.1340    0.9370   -1.2420 oh        1 MOL     -0.875525
    188 H92        -3.6250    1.7540   -1.3570 ho        1 MOL      0.416106
    189 H93        -3.7910    0.2990   -0.9700 ho        1 MOL      0.416106
    190 O27         1.7750   -0.4460   -2.8460 oh        1 MOL     -0.875525
    191 H94         2.4400   -0.3450   -2.1670 ho        1 MOL      0.416106
    192 H95         2.0760    0.1160   -3.5610 ho        1 MOL      0.416106
@<TRIPOS>BOND
     1    1    2 1   
     2    1    4 1   
     3    1    5 1   
     4    1    6 1   
     5    2    3 2   
     6    2    7 1   
     7    7    8 1   
     8    7   15 1   
     9    8    9 1   
    10    8   11 1   
    11    8   16 1   
    12    9   10 2   
    13    9   19 1   
    14   11   12 1   
    15   11   17 1   
    16   11   18 1   
    17   12   13 1   
    18   12   14 1   
    19   19   20 1   
    20   19   28 1   
    21   20   21 1   
    22   20   23 1   
    23   20   29 1   
    24   21   22 2   
    25   21   41 1   
    26   23   24 1   
    27   23   30 1   
    28   23   31 1   
    29   24   25 1   
    30   24   32 1   
    31   24   33 1   
    32   25   26 1   
    33   25   34 1   
    34   25   35 1   
    35   26   27 1   
    36   26   36 1   
    37   26   37 1   
    38   27   38 1   
    39   27   39 1   
    40   27   40 1   
    41   41   42 1   
    42   41   49 1   
    43   42   43 1   
    44   42   45 1   
    45   42   50 1   
    46   43   44 2   
    47   43   53 1   
    48   45   46 1   
    49   45   51 1   
    50   45   52 1   
    51   46   47 1   
    52   46   48 1   
    53   53   54 1   
    54   53   57 1   
    55   54   55 1   
    56   54   58 1   
    57   54   59 1   
    58   55   56 2   
    59   55   60 1   
    60   60   61 1   
    61   60   68 1   
    62   61   62 1   
    63   61   64 1   
    64   61   69 1   
    65   62   63 2   
    66   62   72 1   
    67   64   65 1   
    68   64   70 1   
    69   64   71 1   
    70   65   66 1   
    71   65   67 1   
    72   72   73 1   
    73   72   76 1   
    74   73   74 1   
    75   73   77 1   
    76   73   78 1   
    77   74   75 2   
    78   74   79 1   
    79   79   80 1   
    80   79   86 1   
    81   80   81 1   
    82   80   83 1   
    83   80   87 1   
    84   81   82 2   
    85   81   93 1   
    86   83   84 1   
    87   83   85 1   
    88   83   88 1   
    89   84   90 1   
    90   84   91 1   
    91   84   92 1   
    92   85   89 1   
    93   93   94 1   
    94   93  101 1   
    95   94   95 1   
    96   94   97 1   
    97   94  102 1   
    98   95   96 2   
    99   95  112 1   
   100   97   98 1   
   101   97   99 1   
   102   97  103 1   
   103   98  100 1   
   104   98  104 1   
   105   98  105 1   
   106   99  106 1   
   107   99  107 1   
   108   99  108 1   
   109  100  109 1   
   110  100  110 1   
   111  100  111 1   
   112  112  113 1   
   113  112  119 1   
   114  113  114 1   
   115  113  116 1   
   116  113  120 1   
   117  114  115 2   
   118  114  126 1   
   119  116  117 1   
   120  116  118 1   
   121  116  121 1   
   122  117  123 1   
   123  117  124 1   
   124  117  125 1   
   125  118  122 1   
   126  126  127 1   
   127  126  133 1   
   128  127  128 1   
   129  127  130 1   
   130  127  134 1   
   131  128  129 2   
   132  128  140 1   
   133  130  131 1   
   134  130  132 1   
   135  130  135 1   
   136  131  137 1   
   137  131  138 1   
   138  131  139 1   
   139  132  136 1   
   140  140  141 1   
   141  140  149 1   
   142  141  142 1   
   143  141  144 1   
   144  141  150 1   
   145  142  143 2   
   146  142  162 1   
   147  144  145 1   
   148  144  151 1   
   149  144  152 1   
   150  145  146 1   
   151  145  153 1   
   152  145  154 1   
   153  146  147 1   
   154  146  155 1   
   155  146  156 1   
   156  147  148 1   
   157  147  157 1   
   158  147  158 1   
   159  148  159 1   
   160  148  160 1   
   161  148  161 1   
   162  162  163 1   
   163  162  171 1   
   164  163  164 1   
   165  163  166 1   
   166  163  172 1   
   167  164  165 2   
   168  164  177 1   
   169  166  167 1   
   170  166  173 1   
   171  166  174 1   
   172  167  168 1   
   173  167  175 1   
   174  167  176 1   
   175  168  169 1   
   176  168  170 1   
   177  177  178 1   
   178  177  182 1   
   179  178  179 1   
   180  178  180 1   
   181  178  181 1   
   182  184  185 1   
   183  184  186 1   
   184  187  188 1   
   185  187  189 1   
   186  190  191 1   
   187  190  192 1   
@<TRIPOS>SUBSTRUCTURE
     1 MOL         1 TEMP              0 ****  ****    0 ROOT
