@<TRIPOS>MOLECULE
MOL
  181   177     1     0     0
SMALL
resp


@<TRIPOS>ATOM
      1 C1          2.4430   -2.1280    3.7140 c3        1 MOL     -0.360527
      2 C2          3.7570   -1.3540    3.4890 c         1 MOL      0.672398
      3 O1          3.6170   -0.2580    2.9160 o         1 MOL     -0.581352
      4 H1          2.2230   -2.1660    4.7800 hc        1 MOL      0.086543
      5 H2          1.6290   -1.6210    3.1940 hc        1 MOL      0.086543
      6 H3          2.5470   -3.1420    3.3280 hc        1 MOL      0.086543
      7 N1          4.9650   -1.9020    3.7310 n         1 MOL     -0.492865
      8 C3          6.1990   -1.2150    3.5400 c3        1 MOL      0.052564
      9 C4          6.7440   -1.2820    2.0520 c         1 MOL      0.781217
     10 O2          6.7070   -2.3350    1.4040 o         1 MOL     -0.643707
     11 C5          7.2470   -1.8330    4.4590 c3        1 MOL     -0.186117
     12 C6          8.7390   -1.3610    4.4120 c         1 MOL      0.688653
     13 O3          9.0150   -0.3700    3.7010 o         1 MOL     -0.711626
     14 O4          9.6130   -1.9450    5.0460 o         1 MOL     -0.711626
     15 H4          5.0140   -2.8550    4.0860 hn        1 MOL      0.281936
     16 H5          5.9830   -0.1900    3.8230 h1        1 MOL      0.052417
     17 H6          7.1560   -2.9060    4.3110 hc        1 MOL      0.011991
     18 H7          6.9260   -1.8300    5.4930 hc        1 MOL      0.011991
     19 N2          7.1640   -0.1500    1.5260 n         1 MOL     -0.634835
     20 C7          7.3100   -0.0400    0.0560 c3        1 MOL      0.435518
     21 C8          6.0030    0.1590   -0.6870 c         1 MOL      0.408711
     22 O5          5.0410    0.6040   -0.1140 o         1 MOL     -0.526398
     23 C9          8.1840    1.2330   -0.2290 c3        1 MOL     -0.312064
     24 H8          7.2680    0.6690    2.1170 hn        1 MOL      0.306988
     25 H9          7.9070   -0.8580   -0.3480 h1        1 MOL      0.006423
     26 H10         7.7270    2.1620    0.1310 hc        1 MOL      0.076917
     27 H11         9.1400    1.1460    0.2820 hc        1 MOL      0.076917
     28 H12         8.3180    1.2810   -1.3140 hc        1 MOL      0.076917
     29 N3          5.9490   -0.0690   -2.0060 n         1 MOL     -0.569559
     30 C10         4.7760    0.1640   -2.8220 c3        1 MOL      0.155832
     31 C11         4.6930    1.5940   -3.4450 c         1 MOL      0.437253
     32 O6          3.9260    1.8360   -4.3170 o         1 MOL     -0.496939
     33 C12         4.6760   -1.0180   -3.8530 c3        1 MOL     -0.481378
     34 C13         4.5050   -2.4260   -3.1250 c         1 MOL      0.930318
     35 O7          5.4910   -3.0010   -2.7260 o         1 MOL     -0.768109
     36 O8          3.3330   -2.7790   -2.7930 o         1 MOL     -0.768109
     37 H13         6.6490   -0.7180   -2.3440 hn        1 MOL      0.314235
     38 H14         3.8640    0.1370   -2.2280 h1        1 MOL      0.110868
     39 H15         5.6430   -0.9900   -4.3450 hc        1 MOL      0.094427
     40 H16         3.7730   -0.8520   -4.4590 hc        1 MOL      0.094427
     41 N4          5.5210    2.5470   -3.0390 n         1 MOL     -0.124706
     42 C14         5.5670    3.9170   -3.4690 c3        1 MOL     -0.347569
     43 C15         4.3270    4.6840   -3.1660 c         1 MOL      0.742401
     44 O9          4.0890    5.6880   -3.8770 o         1 MOL     -0.574221
     45 H17         6.2510    2.2080   -2.4220 hn        1 MOL      0.211765
     46 H18         5.5020    3.8580   -4.5520 h1        1 MOL      0.124980
     47 H19         6.4620    4.4140   -3.1020 h1        1 MOL      0.124980
     48 N5          3.5010    4.2460   -2.2130 n         1 MOL     -0.701401
     49 C16         2.1450    4.8660   -2.0090 c3        1 MOL      0.372495
     50 C17         1.6660    4.9060   -0.5690 c         1 MOL      0.473413
     51 O10         2.0440    4.0940    0.2990 o         1 MOL     -0.466325
     52 C18         1.1150    4.1580   -2.9840 c3        1 MOL     -0.336693
     53 C19         1.1980    4.5720   -4.4520 c         1 MOL      0.729360
     54 N6          1.7840    3.7180   -5.2480 n         1 MOL     -0.787871
     55 O11         0.6740    5.5570   -4.9220 o         1 MOL     -0.601222
     56 H20         3.5580    3.2910   -1.8930 hn        1 MOL      0.325876
     57 H21         2.0910    5.9300   -2.2490 h1        1 MOL     -0.013356
     58 H22         0.0850    4.3240   -2.6840 hc        1 MOL      0.096629
     59 H23         1.3320    3.0920   -2.8830 hc        1 MOL      0.096629
     60 H24         2.2980    2.9660   -4.8250 hn        1 MOL      0.360511
     61 H25         1.7450    3.8460   -6.2540 hn        1 MOL      0.360511
     62 N7          0.6970    5.7960   -0.2710 n         1 MOL     -0.520254
     63 C20         0.1880    6.0750    1.0920 c3        1 MOL      0.103820
     64 C21        -1.3730    5.7570    1.1080 c         1 MOL      0.462132
     65 O12        -1.9580    5.2120    0.1570 o         1 MOL     -0.426709
     66 H26         0.2390    6.2560   -1.0530 hn        1 MOL      0.284098
     67 H27         0.3320    7.0860    1.4780 h1        1 MOL      0.052371
     68 H28         0.7230    5.4470    1.7950 h1        1 MOL      0.052371
     69 N8         -2.0630    6.1360    2.2420 n         1 MOL     -0.351693
     70 C22        -3.5160    6.0500    2.3790 c3        1 MOL     -0.533215
     71 C23        -4.1120    4.6740    2.5510 c         1 MOL      0.790858
     72 O13        -5.2920    4.4760    2.5140 o         1 MOL     -0.588311
     73 C24        -4.0060    7.0190    3.3830 c3        1 MOL      0.622483
     74 C25        -3.4240    6.6450    4.7630 c3        1 MOL     -0.415000
     75 O14        -3.3460    8.3040    3.0940 oh        1 MOL     -0.695802
     76 H29        -1.4670    6.6240    2.8900 hn        1 MOL      0.236564
     77 H30        -3.9030    6.3820    1.4160 h1        1 MOL      0.199940
     78 H31        -5.0850    7.0520    3.2970 h1        1 MOL      0.013853
     79 H32        -2.3890    8.2150    3.1400 ho        1 MOL      0.406502
     80 H33        -2.3730    6.9190    4.7400 hc        1 MOL      0.091269
     81 H34        -3.9650    7.3400    5.4070 hc        1 MOL      0.091269
     82 H35        -3.6050    5.6090    5.0660 hc        1 MOL      0.091269
     83 N9         -3.1740    3.7220    2.7860 n         1 MOL     -0.466689
     84 C26        -3.4770    2.2840    2.9450 c3        1 MOL      0.115638
     85 C27        -2.5030    1.5890    1.9350 c         1 MOL      0.547061
     86 O15        -1.4220    2.0710    1.6710 o         1 MOL     -0.469214
     87 C28        -3.2560    1.8770    4.4240 c3        1 MOL      0.177955
     88 C29        -4.2460    2.3850    5.4140 c3        1 MOL      0.096022
     89 C30        -3.1340    0.3260    4.6330 c3        1 MOL     -0.236763
     90 C31        -5.7760    2.0330    5.1970 c3        1 MOL     -0.172071
     91 H36        -2.2070    4.0020    2.8800 hn        1 MOL      0.223726
     92 H37        -4.5100    2.0810    2.6430 h1        1 MOL      0.025463
     93 H38        -2.2950    2.2450    4.7910 hc        1 MOL     -0.013223
     94 H39        -4.2310    3.4680    5.4890 hc        1 MOL     -0.027624
     95 H40        -4.0190    2.0200    6.4190 hc        1 MOL     -0.027624
     96 H41        -3.0380    0.0870    5.6930 hc        1 MOL      0.053635
     97 H42        -3.9210   -0.1720    4.0710 hc        1 MOL      0.053635
     98 H43        -2.2030    0.0100    4.1630 hc        1 MOL      0.053635
     99 H44        -6.2230    2.7910    4.5500 hc        1 MOL      0.033307
    100 H45        -5.8700    1.0040    4.8690 hc        1 MOL      0.033307
    101 H46        -6.2760    2.1540    6.1590 hc        1 MOL      0.033307
    102 N10        -2.9020    0.3690    1.4970 n         1 MOL     -0.743785
    103 C32        -2.1030   -0.5270    0.6650 c3        1 MOL      0.597963
    104 C33        -3.0120   -1.0030   -0.4600 c         1 MOL      0.284711
    105 O16        -3.0280   -2.1640   -0.8370 o         1 MOL     -0.403075
    106 C34        -1.4660   -1.6480    1.5490 c3        1 MOL     -0.307881
    107 C35        -0.3010   -2.3850    0.8090 c         1 MOL      0.756383
    108 O17         0.1160   -1.9510   -0.2890 o         1 MOL     -0.739123
    109 O18         0.3220   -3.3870    1.2690 o         1 MOL     -0.739123
    110 H47        -3.7790   -0.0170    1.8100 hn        1 MOL      0.336245
    111 H48        -1.3150    0.0660    0.2020 h1        1 MOL     -0.014995
    112 H49        -2.2860   -2.3060    1.8190 hc        1 MOL      0.056773
    113 H50        -1.0930   -1.1150    2.4270 hc        1 MOL      0.056773
    114 N11        -3.8120   -0.1240   -0.9840 n         1 MOL     -0.409041
    115 C36        -4.9340   -0.4180   -1.8870 c3        1 MOL      0.225385
    116 C37        -5.7440   -1.6010   -1.3510 c         1 MOL      0.190086
    117 O19        -6.2760   -1.5090   -0.1780 o         1 MOL     -0.499378
    118 C38        -5.8920    0.8470   -2.0690 c3        1 MOL     -0.226298
    119 C39        -5.2330    2.0490   -2.6050 ca        1 MOL      0.107144
    120 C40        -4.8030    3.0380   -1.7010 ca        1 MOL     -0.222209
    121 C41        -4.9100    2.2830   -4.0110 ca        1 MOL     -0.222209
    122 C42        -4.2270    4.2860   -2.0990 ca        1 MOL      0.025529
    123 C43        -4.3830    3.5200   -4.4140 ca        1 MOL      0.025529
    124 C44        -4.1450    4.5400   -3.5030 ca        1 MOL     -0.244873
    125 H51        -3.7480    0.8480   -0.7190 hn        1 MOL      0.271229
    126 H52        -4.4340   -0.5630   -2.8510 h1        1 MOL      0.050601
    127 H53        -6.3560    0.9830   -1.0990 hc        1 MOL      0.095864
    128 H54        -6.6830    0.4520   -2.7120 hc        1 MOL      0.095864
    129 H55        -4.9840    2.9020   -0.6400 ha        1 MOL      0.110995
    130 H56        -4.9980    1.4310   -4.6640 ha        1 MOL      0.110995
    131 H57        -4.1210    5.0350   -1.3300 ha        1 MOL      0.076598
    132 H58        -4.2650    3.6780   -5.4850 ha        1 MOL      0.076598
    133 H59        -3.6980    5.4480   -3.8640 ha        1 MOL      0.136740
    134 N12        -5.9010   -2.6450   -2.2300 n         1 MOL      0.065731
    135 C45        -6.7770   -3.8250   -1.8610 c3        1 MOL      0.093873
    136 C46        -6.0520   -4.8260   -0.9490 c         1 MOL      0.281669
    137 O20        -6.7560   -5.5710   -0.3300 o         1 MOL     -0.495639
    138 C47        -7.2180   -4.4660   -3.1920 c3        1 MOL     -0.207806
    139 C48        -6.0430   -4.1350   -4.1140 c3        1 MOL      0.150746
    140 C49        -5.6280   -2.7140   -3.6830 c3        1 MOL     -0.339100
    141 H60        -7.6150   -3.4050   -1.3040 h1        1 MOL      0.058480
    142 H61        -7.4660   -5.5240   -3.1040 hc        1 MOL      0.072152
    143 H62        -8.0350   -3.8930   -3.6050 hc        1 MOL      0.072152
    144 H63        -5.1940   -4.8170   -4.0520 hc        1 MOL      0.006224
    145 H64        -6.2790   -4.2500   -5.1680 hc        1 MOL      0.006224
    146 H65        -4.5430   -2.6750   -3.8190 h1        1 MOL      0.108833
    147 H66        -6.1680   -1.9700   -4.2800 h1        1 MOL      0.108833
    148 N13        -4.7390   -4.8420   -0.8000 n         1 MOL     -0.088735
    149 C50        -4.0760   -5.7570    0.1240 c3        1 MOL     -0.280684
    150 C51        -4.5140   -5.7040    1.6040 c         1 MOL      0.523039
    151 O21        -4.5690   -6.7630    2.2430 o         1 MOL     -0.560723
    152 C52        -2.5210   -5.5540    0.0580 c3        1 MOL      0.088957
    153 C53        -1.8880   -5.8780   -1.2840 c3        1 MOL     -0.129545
    154 C54        -0.4400   -5.4330   -1.2760 c         1 MOL      0.758059
    155 O22         0.4260   -5.8680   -0.4850 o         1 MOL     -0.770005
    156 O23        -0.0310   -4.6110   -2.1240 o         1 MOL     -0.770005
    157 H67        -4.1660   -4.2140   -1.3560 hn        1 MOL      0.221985
    158 H68        -4.2440   -6.8110   -0.1150 h1        1 MOL      0.134918
    159 H69        -2.0340   -6.2850    0.7190 hc        1 MOL      0.013053
    160 H70        -2.2530   -4.5690    0.4300 hc        1 MOL      0.013053
    161 H71        -2.4870   -5.3250   -2.0040 hc        1 MOL      0.007318
    162 H72        -1.9320   -6.9380   -1.5270 hc        1 MOL      0.007318
    163 N14        -4.8660   -4.5670    2.1520 n         1 MOL     -0.192484
    164 C55        -5.1820   -4.3370    3.5880 c3        1 MOL     -0.280550
    165 H73        -4.4650   -4.8750    4.2080 h1        1 MOL      0.111672
    166 H74        -5.1230   -3.2710    3.8080 h1        1 MOL      0.111672
    167 H75        -6.1880   -4.6980    3.8020 h1        1 MOL      0.111672
    168 H76        -4.6810   -3.7820    1.5470 hn        1 MOL      0.221292
    169 Ca1         2.1630   -3.9230   -0.6490 Ca        1 MOL      1.815095
    170 O24         3.2490   -6.1710   -1.7120 oh        1 MOL     -0.880441
    171 H77         3.2470   -6.9340   -1.1310 ho        1 MOL      0.424524
    172 H78         3.8130   -6.4270   -2.4520 ho        1 MOL      0.424524
    173 O25         5.0300   -3.5950   -0.1960 oh        1 MOL     -0.880441
    174 H79         5.4860   -3.4900   -1.0390 ho        1 MOL      0.424524
    175 H80         5.5550   -3.0800    0.4220 ho        1 MOL      0.424524
    176 O26         2.8190   -5.2240    1.4850 oh        1 MOL     -0.880441
    177 H81         2.2620   -5.8620    1.9330 ho        1 MOL      0.424524
    178 H82         3.6870   -5.3450    1.8540 ho        1 MOL      0.424524
    179 O27         2.7870   -1.5210    0.1290 oh        1 MOL     -0.880441
    180 H83         3.5880   -0.9880    0.1430 ho        1 MOL      0.424524
    181 H84         2.0810   -0.9110    0.3670 ho        1 MOL      0.424524
@<TRIPOS>BOND
     1    1    2 1   
     2    1    4 1   
     3    1    5 1   
     4    1    6 1   
     5    2    3 2   
     6    2    7 1   
     7    7    8 1   
     8    7   15 1   
     9    8    9 1   
    10    8   11 1   
    11    8   16 1   
    12    9   10 2   
    13    9   19 1   
    14   11   12 1   
    15   11   17 1   
    16   11   18 1   
    17   12   13 1   
    18   12   14 1   
    19   19   20 1   
    20   19   24 1   
    21   20   21 1   
    22   20   23 1   
    23   20   25 1   
    24   21   22 2   
    25   21   29 1   
    26   23   26 1   
    27   23   27 1   
    28   23   28 1   
    29   29   30 1   
    30   29   37 1   
    31   30   31 1   
    32   30   33 1   
    33   30   38 1   
    34   31   32 2   
    35   31   41 1   
    36   33   34 1   
    37   33   39 1   
    38   33   40 1   
    39   34   35 1   
    40   34   36 1   
    41   41   42 1   
    42   41   45 1   
    43   42   43 1   
    44   42   46 1   
    45   42   47 1   
    46   43   44 2   
    47   43   48 1   
    48   48   49 1   
    49   48   56 1   
    50   49   50 1   
    51   49   52 1   
    52   49   57 1   
    53   50   51 2   
    54   50   62 1   
    55   52   53 1   
    56   52   58 1   
    57   52   59 1   
    58   53   54 1   
    59   53   55 2   
    60   54   60 1   
    61   54   61 1   
    62   62   63 1   
    63   62   66 1   
    64   63   64 1   
    65   63   67 1   
    66   63   68 1   
    67   64   65 2   
    68   64   69 1   
    69   69   70 1   
    70   69   76 1   
    71   70   71 1   
    72   70   73 1   
    73   70   77 1   
    74   71   72 2   
    75   71   83 1   
    76   73   74 1   
    77   73   75 1   
    78   73   78 1   
    79   74   80 1   
    80   74   81 1   
    81   74   82 1   
    82   75   79 1   
    83   83   84 1   
    84   83   91 1   
    85   84   85 1   
    86   84   87 1   
    87   84   92 1   
    88   85   86 2   
    89   85  102 1   
    90   87   88 1   
    91   87   89 1   
    92   87   93 1   
    93   88   90 1   
    94   88   94 1   
    95   88   95 1   
    96   89   96 1   
    97   89   97 1   
    98   89   98 1   
    99   90   99 1   
   100   90  100 1   
   101   90  101 1   
   102  102  103 1   
   103  102  110 1   
   104  103  104 1   
   105  103  106 1   
   106  103  111 1   
   107  104  105 2   
   108  104  114 1   
   109  106  107 1   
   110  106  112 1   
   111  106  113 1   
   112  107  108 1   
   113  107  109 1   
   114  114  115 1   
   115  114  125 1   
   116  115  116 1   
   117  115  118 1   
   118  115  126 1   
   119  116  117 2   
   120  116  134 1   
   121  118  119 1   
   122  118  127 1   
   123  118  128 1   
   124  119  120 ar  
   125  119  121 ar  
   126  120  122 ar  
   127  120  129 1   
   128  121  123 ar  
   129  121  130 1   
   130  122  124 ar  
   131  122  131 1   
   132  123  124 ar  
   133  123  132 1   
   134  124  133 1   
   135  134  135 1   
   136  134  140 1   
   137  135  136 1   
   138  135  138 1   
   139  135  141 1   
   140  136  137 2   
   141  136  148 1   
   142  138  139 1   
   143  138  142 1   
   144  138  143 1   
   145  139  140 1   
   146  139  144 1   
   147  139  145 1   
   148  140  146 1   
   149  140  147 1   
   150  148  149 1   
   151  148  157 1   
   152  149  150 1   
   153  149  152 1   
   154  149  158 1   
   155  150  151 2   
   156  150  163 1   
   157  152  153 1   
   158  152  159 1   
   159  152  160 1   
   160  153  154 1   
   161  153  161 1   
   162  153  162 1   
   163  154  155 1   
   164  154  156 1   
   165  163  164 1   
   166  163  168 1   
   167  164  165 1   
   168  164  166 1   
   169  164  167 1   
   170  170  171 1   
   171  170  172 1   
   172  173  174 1   
   173  173  175 1   
   174  176  177 1   
   175  176  178 1   
   176  179  180 1   
   177  179  181 1   
@<TRIPOS>SUBSTRUCTURE
     1 MOL         1 TEMP              0 ****  ****    0 ROOT
