@<TRIPOS>MOLECULE
MOL
  182   178     1     0     0
SMALL
resp


@<TRIPOS>ATOM
      1 C1         -0.0540   -4.4980    5.5540 c3        1 MOL     -0.290347
      2 C2          0.0230   -4.2170    4.0410 c         1 MOL      0.753737
      3 O1         -0.9670   -4.3250    3.2830 o         1 MOL     -0.595114
      4 H1          0.5000   -5.4080    5.7820 hc        1 MOL      0.082513
      5 H2          0.3790   -3.6610    6.1010 hc        1 MOL      0.082513
      6 H3         -1.0960   -4.6240    5.8470 hc        1 MOL      0.082513
      7 N1          1.2540   -3.9130    3.6360 n         1 MOL     -0.576643
      8 C3          1.6500   -3.2650    2.3050 c3        1 MOL      0.077378
      9 C4          1.7330   -4.3920    1.2860 c         1 MOL      0.477528
     10 O2          2.0570   -5.5790    1.6190 o         1 MOL     -0.506539
     11 C5          2.9740   -2.5100    2.6510 c3        1 MOL      0.002765
     12 C6          3.5730   -1.7060    1.5110 c         1 MOL      0.619078
     13 O3          4.0710   -0.6020    1.7100 o         1 MOL     -0.672435
     14 O4          3.3840   -1.9880    0.3140 o         1 MOL     -0.672435
     15 H4          1.9600   -3.9200    4.3600 hn        1 MOL      0.323168
     16 H5          1.0110   -2.4730    1.9030 h1        1 MOL     -0.208857
     17 H6          3.7620   -3.1030    3.1130 hc        1 MOL      0.033512
     18 H7          2.5910   -1.8160    3.3950 hc        1 MOL      0.033512
     19 N2          1.5370   -4.1630   -0.0720 n         1 MOL     -0.225521
     20 C7          1.7150   -5.0790   -1.1970 c3        1 MOL     -0.123372
     21 C8          3.0870   -5.2240   -1.7440 c         1 MOL      0.606309
     22 O5          3.5540   -6.2740   -2.2060 o         1 MOL     -0.589377
     23 C9          0.6340   -4.8710   -2.1930 c3        1 MOL      0.069514
     24 C10        -0.6620   -5.3860   -1.5000 c3        1 MOL     -0.023817
     25 C11        -1.8230   -5.6060   -2.4770 c3        1 MOL      0.002929
     26 C12        -2.9270   -6.4420   -1.8230 c3        1 MOL      0.105913
     27 N3         -4.0410   -6.6590   -2.7470 n4        1 MOL     -0.334187
     28 H8          1.2150   -3.2570   -0.3920 hn        1 MOL      0.233770
     29 H9          1.6060   -6.1000   -0.8340 h1        1 MOL      0.086097
     30 H10         0.7980   -5.5340   -3.0380 hc        1 MOL     -0.012469
     31 H11         0.5550   -3.8530   -2.5570 hc        1 MOL     -0.012469
     32 H12        -0.9580   -4.6840   -0.7210 hc        1 MOL      0.041458
     33 H13        -0.4740   -6.3780   -1.0880 hc        1 MOL      0.041458
     34 H14        -1.5150   -6.0750   -3.4230 hc        1 MOL      0.006651
     35 H15        -2.2830   -4.6400   -2.6780 hc        1 MOL      0.006651
     36 H16        -3.3590   -5.8890   -0.9950 hx        1 MOL      0.060982
     37 H17        -2.5020   -7.3180   -1.3430 hx        1 MOL      0.060982
     38 H18        -3.7090   -7.1320   -3.5730 hn        1 MOL      0.277389
     39 H19        -4.7530   -7.2170   -2.3170 hn        1 MOL      0.277389
     40 H20        -4.4100   -5.7700   -3.0440 hn        1 MOL      0.277389
     41 N4          3.9110   -4.2020   -1.6070 n         1 MOL     -0.305178
     42 C13         5.2740   -4.1360   -2.1790 c3        1 MOL      0.117714
     43 C14         6.3550   -3.7470   -1.2250 c         1 MOL      0.413387
     44 O6          7.5640   -3.9050   -1.4370 o         1 MOL     -0.550362
     45 C15         5.2480   -3.0530   -3.2230 c3        1 MOL     -0.310112
     46 C16         4.6440   -1.7700   -2.6580 c         1 MOL      0.811228
     47 O7          5.3560   -1.1130   -1.8670 o         1 MOL     -0.768087
     48 O8          3.4570   -1.4490   -2.8420 o         1 MOL     -0.768087
     49 H21         3.6120   -3.4020   -1.0770 hn        1 MOL      0.092819
     50 H22         5.6690   -4.9950   -2.7210 h1        1 MOL      0.119547
     51 H23         4.6350   -3.4160   -4.0500 hc        1 MOL      0.086917
     52 H24         6.2450   -2.8340   -3.5900 hc        1 MOL      0.086917
     53 N5          5.9920   -3.3380   -0.0200 n         1 MOL     -0.252115
     54 C17         6.8960   -3.0760    1.1180 c3        1 MOL     -0.214948
     55 C18         7.4100   -1.6610    1.3240 c         1 MOL      0.535557
     56 O9          7.9890   -1.4990    2.3640 o         1 MOL     -0.536214
     57 H25         5.0230   -3.0460    0.0430 hn        1 MOL      0.195518
     58 H26         7.7630   -3.7040    0.9050 h1        1 MOL      0.139857
     59 H27         6.4600   -3.4890    2.0370 h1        1 MOL      0.139857
     60 N6          7.1510   -0.7330    0.3570 n         1 MOL     -0.275682
     61 C19         7.6370    0.6450    0.3540 c3        1 MOL      0.174001
     62 C20         6.4780    1.7950    0.2900 c         1 MOL      0.364410
     63 O10         5.3370    1.4610    0.0610 o         1 MOL     -0.408768
     64 C21         8.6820    0.8560   -0.7780 c3        1 MOL     -0.468109
     65 C22         8.1980    1.7720   -1.9480 c         1 MOL      0.606380
     66 N7          7.1420    1.3590   -2.7000 n         1 MOL     -0.676581
     67 O11         8.8280    2.7590   -2.3310 o         1 MOL     -0.562328
     68 H28         6.6730   -1.0000   -0.4820 hn        1 MOL      0.239535
     69 H29         8.1400    0.7700    1.3160 h1        1 MOL      0.042479
     70 H30         8.9940   -0.0650   -1.2810 hc        1 MOL      0.166656
     71 H31         9.6090    1.1980   -0.3370 hc        1 MOL      0.166656
     72 H32         6.7460    0.4710   -2.4310 hn        1 MOL      0.331341
     73 H33         6.8930    1.8360   -3.5520 hn        1 MOL      0.331341
     74 N8          6.8910    3.0550    0.4700 n         1 MOL     -0.332226
     75 C23         6.0300    4.2330    0.2100 c3        1 MOL     -0.136816
     76 C24         4.6650    4.2300    0.9590 c         1 MOL      0.593862
     77 O12         4.5880    3.8800    2.0970 o         1 MOL     -0.489480
     78 H34         7.8110    3.3110    0.7920 hn        1 MOL      0.302546
     79 H35         5.7640    4.2800   -0.8390 h1        1 MOL      0.093056
     80 H36         6.5060    5.1380    0.5750 h1        1 MOL      0.093056
     81 N9          3.6020    4.6510    0.2550 n         1 MOL     -0.653278
     82 C25         2.2100    4.5140    0.7770 c3        1 MOL      0.524791
     83 C26         1.7360    3.1060    1.1360 c         1 MOL      0.456672
     84 O13         2.4320    2.1980    0.8070 o         1 MOL     -0.528092
     85 C27         1.3220    5.2420   -0.1920 c3        1 MOL     -0.494664
     86 C28         1.6000    6.6940   -0.4210 ca        1 MOL      0.255062
     87 C29         0.8740    7.2240   -1.5410 ca        1 MOL     -0.296958
     88 C30         2.4630    7.4580    0.4630 ca        1 MOL     -0.296958
     89 C31         1.1370    8.5960   -1.7410 ca        1 MOL     -0.178191
     90 C32         2.6190    8.8200    0.1900 ca        1 MOL     -0.178191
     91 C33         1.9160    9.3830   -0.8820 ca        1 MOL      0.274225
     92 O14         1.9900   10.7370   -1.1170 oh        1 MOL     -0.485638
     93 H37         3.7800    4.7620   -0.7390 hn        1 MOL      0.315420
     94 H38         2.2020    5.0400    1.7300 h1        1 MOL      0.002761
     95 H39         0.2900    5.2520    0.1470 hc        1 MOL      0.109894
     96 H40         1.4170    4.7510   -1.1650 hc        1 MOL      0.109894
     97 H41         0.1500    6.7110   -2.1480 ha        1 MOL      0.189433
     98 H42         2.8960    7.0760    1.3770 ha        1 MOL      0.189433
     99 H43         0.6600    9.0520   -2.5950 ha        1 MOL      0.143561
    100 H44         3.2520    9.4340    0.8010 ha        1 MOL      0.143561
    101 H45         1.5480   11.1190   -1.8740 ho        1 MOL      0.368341
    102 N10         0.6600    2.9990    1.9380 n         1 MOL     -0.623189
    103 C34         0.0330    1.8080    2.5080 c3        1 MOL      0.088931
    104 C35        -0.1710    0.6600    1.4220 c         1 MOL      0.333970
    105 O15         0.7880    0.0960    0.8580 o         1 MOL     -0.159189
    106 C36         0.9000    1.2060    3.6960 c3        1 MOL      0.255811
    107 C37         0.4580   -0.1210    4.2560 c3        1 MOL     -0.083466
    108 C38         1.2250    2.2680    4.7900 c3        1 MOL     -0.272118
    109 C39        -0.9590    0.0190    4.8080 c3        1 MOL     -0.006972
    110 H46         0.4620    3.8650    2.4100 hn        1 MOL      0.320692
    111 H47        -0.9420    2.0480    2.9350 h1        1 MOL      0.061949
    112 H48         1.8630    0.9680    3.2580 hc        1 MOL     -0.012541
    113 H49         1.1400   -0.4420    5.0430 hc        1 MOL      0.045561
    114 H50         0.3540   -0.8940    3.4920 hc        1 MOL      0.045561
    115 H51         1.5550    3.2050    4.3340 hc        1 MOL      0.068470
    116 H52         0.4330    2.3840    5.5300 hc        1 MOL      0.068470
    117 H53         2.0650    1.9190    5.3980 hc        1 MOL      0.068470
    118 H54        -1.2450   -0.8790    5.3440 hc        1 MOL     -0.008815
    119 H55        -1.0920    0.9330    5.3890 hc        1 MOL     -0.008815
    120 H56        -1.6520    0.2210    3.9880 hc        1 MOL     -0.008815
    121 N11        -1.4390    0.3070    1.1490 n         1 MOL     -0.512395
    122 C40        -1.8140   -0.7440    0.1550 c3        1 MOL      0.046737
    123 C41        -3.2290   -0.5950   -0.4990 c         1 MOL      0.637898
    124 O16        -3.4990   -1.2710   -1.4960 o         1 MOL     -0.572848
    125 C42        -1.7930   -2.0880    0.8500 c3        1 MOL      0.409099
    126 O17        -2.4540   -2.1200    2.0540 oh        1 MOL     -0.640195
    127 H57        -2.1600    0.7140    1.7270 hn        1 MOL      0.321565
    128 H58        -1.1420   -0.8210   -0.6970 h1        1 MOL      0.021124
    129 H59        -0.7560   -2.2640    1.1380 h1        1 MOL     -0.067075
    130 H60        -2.0940   -2.8800    0.1720 h1        1 MOL     -0.067075
    131 H61        -2.1690   -2.8430    2.6180 ho        1 MOL      0.404299
    132 N12        -4.0140    0.3690   -0.0270 n         1 MOL     -0.607512
    133 C43        -5.3830    0.5370   -0.4590 c3        1 MOL      0.225317
    134 C44        -5.7030    1.3420   -1.7340 c         1 MOL      0.633140
    135 O18        -4.7940    2.0470   -2.1850 o         1 MOL     -0.578051
    136 C45        -6.2100    1.1340    0.6920 c3        1 MOL     -0.240694
    137 H62        -3.6790    0.8310    0.8040 hn        1 MOL      0.310393
    138 H63        -5.8550   -0.4340   -0.6390 h1        1 MOL      0.047161
    139 H64        -7.1630    1.5140    0.3180 hc        1 MOL      0.078768
    140 H65        -6.3080    0.3610    1.4550 hc        1 MOL      0.078768
    141 H66        -5.6320    1.9400    1.1530 hc        1 MOL      0.078768
    142 N13        -6.9530    1.2950   -2.2810 n         1 MOL     -0.687995
    143 C46        -8.0640    0.3620   -2.0330 c3        1 MOL      0.277306
    144 C47        -9.4540    0.8980   -2.5310 c         1 MOL      0.347003
    145 O19        -9.5820    1.4070   -3.6930 o         1 MOL     -0.512085
    146 C48        -7.7200   -0.9160   -2.7420 c3        1 MOL     -0.117027
    147 H67        -7.0070    1.8860   -3.1050 hn        1 MOL      0.348936
    148 H68        -8.0130    0.1980   -0.9550 h1        1 MOL      0.012470
    149 H69        -7.3610   -0.8590   -3.7640 hc        1 MOL      0.039674
    150 H70        -6.9540   -1.4870   -2.2190 hc        1 MOL      0.039674
    151 H71        -8.5900   -1.5760   -2.7440 hc        1 MOL      0.039674
    152 N14       -10.5490    0.9240   -1.7110 n         1 MOL     -0.252815
    153 C49       -10.6810    0.5410   -0.2580 c3        1 MOL     -0.347049
    154 C50        -9.8780    1.5290    0.6420 c         1 MOL      0.561993
    155 O20        -9.3040    1.0870    1.6070 o         1 MOL     -0.549867
    156 C51       -12.1980    0.6290    0.1800 c3        1 MOL      0.215165
    157 C52       -12.6630   -0.3470    1.3430 c3        1 MOL     -0.246634
    158 C53       -13.9980   -0.9890    0.9420 c         1 MOL      0.711260
    159 O21       -15.0390   -0.6050    1.4630 o         1 MOL     -0.663541
    160 O22       -13.9910   -1.7740   -0.0430 o         1 MOL     -0.663541
    161 H72       -11.3120    1.3730   -2.1980 hn        1 MOL      0.256972
    162 H73       -10.3980   -0.5090   -0.1610 h1        1 MOL      0.175245
    163 H74       -12.7270    0.3500   -0.7180 hc        1 MOL     -0.012097
    164 H75       -12.3620    1.6960    0.3430 hc        1 MOL     -0.012097
    165 H76       -12.6640    0.2970    2.2190 hc        1 MOL      0.037817
    166 H77       -11.9020   -1.1250    1.4230 hc        1 MOL      0.037817
    167 N15        -9.6260    2.7390    0.1850 n         1 MOL     -0.205507
    168 C54        -8.9430    3.7900    0.9770 c3        1 MOL     -0.227410
    169 H78        -8.4870    3.3410    1.8590 h1        1 MOL      0.101679
    170 H79        -8.1700    4.2590    0.3680 h1        1 MOL      0.101679
    171 H80        -9.6690    4.5410    1.2870 h1        1 MOL      0.101679
    172 H81       -10.1280    3.0780   -0.6160 hn        1 MOL      0.221092
    173 Ca1         3.1170    0.2710   -0.7710 Ca        1 MOL      1.753016
    174 O23         3.7660    2.1130   -2.7260 oh        1 MOL     -0.915899
    175 H82         4.2820    1.8730   -3.4930 ho        1 MOL      0.440653
    176 H83         3.5010    3.0210   -2.8840 ho        1 MOL      0.440653
    177 O24         1.1640   -1.6230   -1.6010 oh        1 MOL     -0.915899
    178 H84         1.8770   -1.7530   -2.2210 ho        1 MOL      0.440653
    179 H85         0.3660   -1.7670   -2.1180 ho        1 MOL      0.440653
    180 O25         0.9560    1.1330   -2.0690 oh        1 MOL     -0.915899
    181 H86         1.0190    1.8000   -2.7490 ho        1 MOL      0.440653
    182 H87         0.0510    0.8200   -2.1140 ho        1 MOL      0.440653
@<TRIPOS>BOND
     1    1    2 1   
     2    1    4 1   
     3    1    5 1   
     4    1    6 1   
     5    2    3 2   
     6    2    7 1   
     7    7    8 1   
     8    7   15 1   
     9    8    9 1   
    10    8   11 1   
    11    8   16 1   
    12    9   10 2   
    13    9   19 1   
    14   11   12 1   
    15   11   17 1   
    16   11   18 1   
    17   12   13 1   
    18   12   14 1   
    19   19   20 1   
    20   19   28 1   
    21   20   21 1   
    22   20   23 1   
    23   20   29 1   
    24   21   22 2   
    25   21   41 1   
    26   23   24 1   
    27   23   30 1   
    28   23   31 1   
    29   24   25 1   
    30   24   32 1   
    31   24   33 1   
    32   25   26 1   
    33   25   34 1   
    34   25   35 1   
    35   26   27 1   
    36   26   36 1   
    37   26   37 1   
    38   27   38 1   
    39   27   39 1   
    40   27   40 1   
    41   41   42 1   
    42   41   49 1   
    43   42   43 1   
    44   42   45 1   
    45   42   50 1   
    46   43   44 2   
    47   43   53 1   
    48   45   46 1   
    49   45   51 1   
    50   45   52 1   
    51   46   47 1   
    52   46   48 1   
    53   53   54 1   
    54   53   57 1   
    55   54   55 1   
    56   54   58 1   
    57   54   59 1   
    58   55   56 2   
    59   55   60 1   
    60   60   61 1   
    61   60   68 1   
    62   61   62 1   
    63   61   64 1   
    64   61   69 1   
    65   62   63 2   
    66   62   74 1   
    67   64   65 1   
    68   64   70 1   
    69   64   71 1   
    70   65   66 1   
    71   65   67 2   
    72   66   72 1   
    73   66   73 1   
    74   74   75 1   
    75   74   78 1   
    76   75   76 1   
    77   75   79 1   
    78   75   80 1   
    79   76   77 2   
    80   76   81 1   
    81   81   82 1   
    82   81   93 1   
    83   82   83 1   
    84   82   85 1   
    85   82   94 1   
    86   83   84 2   
    87   83  102 1   
    88   85   86 1   
    89   85   95 1   
    90   85   96 1   
    91   86   87 ar  
    92   86   88 ar  
    93   87   89 ar  
    94   87   97 1   
    95   88   90 ar  
    96   88   98 1   
    97   89   91 ar  
    98   89   99 1   
    99   90   91 ar  
   100   90  100 1   
   101   91   92 1   
   102   92  101 1   
   103  102  103 1   
   104  102  110 1   
   105  103  104 1   
   106  103  106 1   
   107  103  111 1   
   108  104  105 2   
   109  104  121 1   
   110  106  107 1   
   111  106  108 1   
   112  106  112 1   
   113  107  109 1   
   114  107  113 1   
   115  107  114 1   
   116  108  115 1   
   117  108  116 1   
   118  108  117 1   
   119  109  118 1   
   120  109  119 1   
   121  109  120 1   
   122  121  122 1   
   123  121  127 1   
   124  122  123 1   
   125  122  125 1   
   126  122  128 1   
   127  123  124 2   
   128  123  132 1   
   129  125  126 1   
   130  125  129 1   
   131  125  130 1   
   132  126  131 1   
   133  132  133 1   
   134  132  137 1   
   135  133  134 1   
   136  133  136 1   
   137  133  138 1   
   138  134  135 2   
   139  134  142 1   
   140  136  139 1   
   141  136  140 1   
   142  136  141 1   
   143  142  143 1   
   144  142  147 1   
   145  143  144 1   
   146  143  146 1   
   147  143  148 1   
   148  144  145 2   
   149  144  152 1   
   150  146  149 1   
   151  146  150 1   
   152  146  151 1   
   153  152  153 1   
   154  152  161 1   
   155  153  154 1   
   156  153  156 1   
   157  153  162 1   
   158  154  155 2   
   159  154  167 1   
   160  156  157 1   
   161  156  163 1   
   162  156  164 1   
   163  157  158 1   
   164  157  165 1   
   165  157  166 1   
   166  158  159 1   
   167  158  160 1   
   168  167  168 1   
   169  167  172 1   
   170  168  169 1   
   171  168  170 1   
   172  168  171 1   
   173  174  175 1   
   174  174  176 1   
   175  177  178 1   
   176  177  179 1   
   177  180  181 1   
   178  180  182 1   
@<TRIPOS>SUBSTRUCTURE
     1 MOL         1 TEMP              0 ****  ****    0 ROOT
