@<TRIPOS>MOLECULE
MOL
  181   177     1     0     0
SMALL
resp


@<TRIPOS>ATOM
      1 C1          4.8280   -1.3940    3.8910 c3        1 MOL     -0.432311
      2 C2          5.7910   -0.4150    3.2200 c         1 MOL      0.712424
      3 O1          5.3640    0.5550    2.5550 o         1 MOL     -0.633184
      4 H1          4.6310   -1.0670    4.9120 hc        1 MOL      0.116985
      5 H2          3.8930   -1.4240    3.3330 hc        1 MOL      0.116985
      6 H3          5.2740   -2.3890    3.9080 hc        1 MOL      0.116985
      7 N1          7.0820   -0.6810    3.3430 n         1 MOL     -0.455601
      8 C3          8.1930   -0.0090    2.7560 c3        1 MOL      0.178946
      9 C4          8.5470   -0.6330    1.4310 c         1 MOL      0.553483
     10 O2          8.3470   -1.8550    1.2680 o         1 MOL     -0.533975
     11 C5          9.3770   -0.0440    3.7490 c3        1 MOL     -0.329917
     12 C6          9.9090   -1.4440    4.1580 c         1 MOL      0.783244
     13 O3         10.8820   -1.9770    3.6160 o         1 MOL     -0.727632
     14 O4          9.3610   -1.9220    5.1720 o         1 MOL     -0.727632
     15 H4          7.3530   -1.5380    3.8180 hn        1 MOL      0.241099
     16 H5          7.9360    1.0460    2.6290 h1        1 MOL      0.009046
     17 H6          8.9740    0.4730    4.6220 hc        1 MOL      0.043468
     18 H7         10.1880    0.4410    3.2220 hc        1 MOL      0.043468
     19 N2          8.9160    0.1340    0.4230 n         1 MOL     -0.526265
     20 C7          9.1690   -0.3890   -0.9560 c3        1 MOL      0.318709
     21 C8          7.8320   -0.6810   -1.7200 c         1 MOL      0.276113
     22 O5          7.8590   -1.1130   -2.8740 o         1 MOL     -0.495626
     23 C9          9.9830    0.7230   -1.6650 c3        1 MOL     -0.337187
     24 H8          8.8630    1.1300    0.5870 hn        1 MOL      0.263208
     25 H9          9.8210   -1.2630   -0.9260 h1        1 MOL      0.079579
     26 H10         9.5200    1.7070   -1.5900 hc        1 MOL      0.081112
     27 H11        10.9460    0.8070   -1.1530 hc        1 MOL      0.081112
     28 H12        10.0470    0.4350   -2.7150 hc        1 MOL      0.081112
     29 N3          6.6880   -0.6120   -1.0500 n         1 MOL     -0.393045
     30 C10         5.3600   -1.0970   -1.4950 c3        1 MOL      0.418553
     31 C11         4.8550   -0.4540   -2.8390 c         1 MOL      0.305670
     32 O6          4.1870   -1.1200   -3.5870 o         1 MOL     -0.466705
     33 C12         5.3100   -2.6010   -1.5190 c3        1 MOL     -0.229918
     34 C13         3.8930   -3.1800   -1.4880 c         1 MOL      0.586655
     35 O7          3.7050   -4.4060   -1.6560 o         1 MOL     -0.690533
     36 O8          2.8320   -2.4680   -1.3320 o         1 MOL     -0.690533
     37 H13         6.6730   -0.3580   -0.0800 hn        1 MOL      0.198557
     38 H14         4.6530   -0.6270   -0.8090 h1        1 MOL     -0.026029
     39 H15         5.7550   -2.7910   -0.5440 hc        1 MOL      0.089870
     40 H16         5.9360   -2.9960   -2.3180 hc        1 MOL      0.089870
     41 N4          5.0990    0.7970   -3.1340 n         1 MOL     -0.169619
     42 C14         4.8400    1.5020   -4.4140 c3        1 MOL     -0.090698
     43 C15         3.3880    1.8700   -4.7340 c         1 MOL      0.533547
     44 O9          2.8920    1.5840   -5.8000 o         1 MOL     -0.538064
     45 H17         5.5510    1.3690   -2.4400 hn        1 MOL      0.188065
     46 H18         5.3040    1.0210   -5.2770 h1        1 MOL      0.068147
     47 H19         5.3870    2.4380   -4.3440 h1        1 MOL      0.068147
     48 N5          2.7620    2.5460   -3.7870 n         1 MOL     -0.430641
     49 C16         1.3260    2.8870   -3.8540 c3        1 MOL      0.032538
     50 C17         1.1480    4.0070   -2.9220 c         1 MOL      0.420935
     51 O10         1.8280    4.1780   -1.8710 o         1 MOL     -0.489654
     52 C18         0.5430    1.6260   -3.3720 c3        1 MOL     -0.071707
     53 C19        -0.9420    1.8890   -3.4930 c         1 MOL      0.589363
     54 N6         -1.5240    2.1430   -2.3150 n         1 MOL     -0.711169
     55 O11        -1.4860    1.9200   -4.5550 o         1 MOL     -0.575938
     56 H20         3.1920    2.6420   -2.8720 hn        1 MOL      0.244810
     57 H21         1.0150    3.0890   -4.8800 h1        1 MOL      0.077031
     58 H22         0.8200    1.3670   -2.3480 hc        1 MOL      0.074665
     59 H23         0.7240    0.7540   -3.9920 hc        1 MOL      0.074665
     60 H24        -0.9640    2.3180   -1.5020 hn        1 MOL      0.323494
     61 H25        -2.5370    2.1200   -2.2760 hn        1 MOL      0.323494
     62 N7          0.1600    4.8530   -3.2350 n         1 MOL     -0.383730
     63 C20        -0.0030    6.1320   -2.5100 c3        1 MOL      0.021051
     64 C21        -1.0760    6.1020   -1.3930 c         1 MOL      0.460637
     65 O12        -2.0620    5.3360   -1.5770 o         1 MOL     -0.497088
     66 H26        -0.3750    4.7480   -4.0860 hn        1 MOL      0.304769
     67 H27        -0.2200    6.8930   -3.2620 h1        1 MOL      0.052959
     68 H28         0.9550    6.4790   -2.1270 h1        1 MOL      0.052959
     69 N8         -0.8960    6.8210   -0.2780 n         1 MOL     -0.395988
     70 C22        -1.9580    6.9290    0.7410 c3        1 MOL     -0.197553
     71 C23        -2.0690    5.6790    1.6410 c         1 MOL      0.441110
     72 O13        -3.0350    5.5050    2.4030 o         1 MOL     -0.551980
     73 C24        -1.9560    8.1790    1.5050 c3        1 MOL      0.428261
     74 C25        -0.6880    8.4620    2.3060 c3        1 MOL     -0.328813
     75 O14        -2.0630    9.2150    0.5630 oh        1 MOL     -0.618213
     76 H29        -0.0750    7.4190   -0.3340 hn        1 MOL      0.260840
     77 H30        -2.9260    7.0100    0.2280 h1        1 MOL      0.154641
     78 H31        -2.8380    8.2230    2.1490 h1        1 MOL      0.057532
     79 H32        -1.2550    9.1590    0.0420 ho        1 MOL      0.355342
     80 H33        -0.5680    7.6950    3.0730 hc        1 MOL      0.081692
     81 H34         0.2010    8.4160    1.6850 hc        1 MOL      0.081692
     82 H35        -0.6530    9.4300    2.8050 hc        1 MOL      0.081692
     83 N9         -1.0170    4.8640    1.5580 n         1 MOL     -0.123641
     84 C26        -0.8880    3.5420    2.1830 c3        1 MOL     -0.188983
     85 C27        -0.9550    2.3930    1.1110 c         1 MOL      0.578534
     86 O15        -0.1250    2.4520    0.1480 o         1 MOL     -0.459870
     87 C28         0.3610    3.5290    2.9630 c3        1 MOL      0.232700
     88 C29         0.5690    4.6180    4.0280 c3        1 MOL      0.088453
     89 C30         0.6470    2.1470    3.5560 c3        1 MOL     -0.339168
     90 C31         1.9710    4.9200    4.5430 c3        1 MOL     -0.100179
     91 H36        -0.1810    5.1690    1.0670 hn        1 MOL      0.170662
     92 H37        -1.7620    3.4150    2.8220 h1        1 MOL      0.086888
     93 H38         1.1520    3.5570    2.2050 hc        1 MOL      0.002361
     94 H39        -0.1540    4.4690    4.8260 hc        1 MOL     -0.045918
     95 H40         0.1920    5.5300    3.5530 hc        1 MOL     -0.045918
     96 H41         1.5490    2.2280    4.1700 hc        1 MOL      0.093022
     97 H42        -0.1950    1.9520    4.2160 hc        1 MOL      0.093022
     98 H43         0.8010    1.4700    2.7080 hc        1 MOL      0.093022
     99 H44         2.3450    4.1150    5.1740 hc        1 MOL      0.023560
    100 H45         2.5660    5.1410    3.6580 hc        1 MOL      0.023560
    101 H46         1.9480    5.8580    5.1120 hc        1 MOL      0.023560
    102 N10        -1.7930    1.3520    1.2990 n         1 MOL     -0.559624
    103 C32        -1.8790    0.1440    0.4470 c3        1 MOL     -0.115501
    104 C33        -3.3170   -0.2490    0.0050 c         1 MOL      0.586136
    105 O16        -3.5350   -1.3810   -0.3520 o         1 MOL     -0.496775
    106 C34        -1.1450   -1.0010    1.1830 c3        1 MOL      0.181417
    107 C35        -0.4860   -2.0580    0.3220 c         1 MOL      0.606476
    108 O17        -0.6010   -1.9980   -0.9530 o         1 MOL     -0.770241
    109 O18         0.0380   -3.0430    0.8430 o         1 MOL     -0.770241
    110 H47        -2.4030    1.3990    2.0980 hn        1 MOL      0.315424
    111 H48        -1.3160    0.4270   -0.4500 h1        1 MOL      0.118290
    112 H49        -1.8020   -1.4540    1.9230 hc        1 MOL     -0.006187
    113 H50        -0.3460   -0.6000    1.7950 hc        1 MOL     -0.006187
    114 N11        -4.3300    0.5960    0.0570 n         1 MOL     -0.365537
    115 C36        -5.7750    0.2960   -0.1770 c3        1 MOL      0.082010
    116 C37        -6.3460   -0.8540    0.6840 c         1 MOL      0.061799
    117 O19        -6.1660   -0.7830    1.9390 o         1 MOL     -0.387579
    118 C38        -6.5850    1.5580   -0.0530 c3        1 MOL     -0.266331
    119 C39        -8.0250    1.2900   -0.3770 ca        1 MOL      0.149332
    120 C40        -8.4800    1.3050   -1.7080 ca        1 MOL     -0.197363
    121 C41        -8.9300    1.0510    0.6450 ca        1 MOL     -0.197363
    122 C42        -9.8210    0.9660   -2.0180 ca        1 MOL     -0.087975
    123 C43       -10.2490    0.7610    0.3570 ca        1 MOL     -0.087975
    124 C44       -10.6620    0.7430   -1.0270 ca        1 MOL     -0.124296
    125 H51        -4.1390    1.4910    0.4890 hn        1 MOL      0.249869
    126 H52        -5.7970    0.1100   -1.2560 h1        1 MOL      0.076499
    127 H53        -6.1210    2.2750   -0.7300 hc        1 MOL      0.117960
    128 H54        -6.5470    2.0560    0.9200 hc        1 MOL      0.117960
    129 H55        -7.7710    1.4340   -2.5080 ha        1 MOL      0.138747
    130 H56        -8.6510    1.0810    1.6860 ha        1 MOL      0.138747
    131 H57       -10.0810    0.7560   -3.0450 ha        1 MOL      0.107008
    132 H58       -11.0050    0.4990    1.0870 ha        1 MOL      0.107008
    133 H59       -11.6350    0.3800   -1.2970 ha        1 MOL      0.093837
    134 N12        -7.0850   -1.8900    0.1650 n         1 MOL      0.064942
    135 C45        -7.6200   -3.0360    0.9390 c3        1 MOL      0.022286
    136 C46        -6.5290   -3.7240    1.7260 c         1 MOL      0.329864
    137 O20        -6.8420   -4.4190    2.6450 o         1 MOL     -0.539262
    138 C47        -8.1360   -4.0940   -0.2040 c3        1 MOL     -0.175092
    139 C48        -8.2880   -3.2580   -1.4430 c3        1 MOL     -0.019163
    140 C49        -7.2330   -2.1990   -1.2710 c3        1 MOL      0.050227
    141 H60        -8.4490   -2.7770    1.5890 h1        1 MOL      0.079639
    142 H61        -7.3880   -4.8420   -0.4620 hc        1 MOL      0.088866
    143 H62        -8.9790   -4.6710    0.1580 hc        1 MOL      0.088866
    144 H63        -8.1990   -3.7920   -2.3910 hc        1 MOL      0.018538
    145 H64        -9.2300   -2.7070   -1.4420 hc        1 MOL      0.018538
    146 H65        -6.3360   -2.5750   -1.7640 h1        1 MOL      0.026316
    147 H66        -7.5720   -1.2790   -1.7310 h1        1 MOL      0.026316
    148 N13        -5.2240   -3.5510    1.5120 n         1 MOL     -0.050758
    149 C50        -4.1060   -4.1160    2.2640 c3        1 MOL     -0.251971
    150 C51        -3.6680   -3.2720    3.4900 c         1 MOL      0.422541
    151 O21        -2.7460   -3.5920    4.2410 o         1 MOL     -0.542749
    152 C52        -2.9790   -4.5370    1.3170 c3        1 MOL      0.076992
    153 C53        -3.2540   -5.7100    0.3690 c3        1 MOL     -0.237961
    154 C54        -2.2230   -5.5540   -0.7620 c         1 MOL      0.770679
    155 O22        -1.0060   -5.6970   -0.4790 o         1 MOL     -0.738364
    156 O23        -2.6430   -5.5090   -1.9360 o         1 MOL     -0.738364
    157 H67        -4.9530   -3.0090    0.7070 hn        1 MOL      0.159409
    158 H68        -4.4250   -5.0630    2.7180 h1        1 MOL      0.129352
    159 H69        -2.1270   -4.7970    1.9300 hc        1 MOL      0.078531
    160 H70        -2.6900   -3.6880    0.6910 hc        1 MOL      0.078531
    161 H71        -4.2530   -5.7330   -0.0690 hc        1 MOL      0.036810
    162 H72        -2.9790   -6.6330    0.8950 hc        1 MOL      0.036810
    163 N14        -4.2680   -2.1060    3.7130 n         1 MOL     -0.054758
    164 C55        -4.0750   -1.2050    4.8130 c3        1 MOL     -0.130823
    165 H73        -5.0420   -0.9540    5.2510 h1        1 MOL      0.051958
    166 H74        -3.4480   -1.6800    5.5670 h1        1 MOL      0.051958
    167 H75        -3.5920   -0.2950    4.4580 h1        1 MOL      0.051958
    168 H76        -4.9890   -1.8250    3.0540 hn        1 MOL      0.116206
    169 Ca1         0.8470   -4.1750   -1.3520 Ca        1 MOL      1.819417
    170 O24         1.9060   -5.2380    0.9980 oh        1 MOL     -0.846141
    171 H77         2.7500   -5.5830    1.2970 ho        1 MOL      0.407485
    172 H78         1.4950   -4.9010    1.7990 ho        1 MOL      0.407485
    173 O25         1.4240   -6.7940   -2.3020 oh        1 MOL     -0.846141
    174 H79         1.4560   -7.2960   -3.1210 ho        1 MOL      0.407485
    175 H80         1.7320   -7.4040   -1.6320 ho        1 MOL      0.407485
    176 O26         1.4160   -2.5520   -3.6750 oh        1 MOL     -0.846141
    177 H81         1.0570   -2.3850   -4.5490 ho        1 MOL      0.407485
    178 H82         2.0740   -1.8640   -3.5500 ho        1 MOL      0.407485
    179 O27        -0.8430   -4.2060   -3.4330 oh        1 MOL     -0.846141
    180 H83        -1.6620   -4.5860   -3.1140 ho        1 MOL      0.407485
    181 H84        -1.1130   -3.6200   -4.1370 ho        1 MOL      0.407485
@<TRIPOS>BOND
     1    1    2 1   
     2    1    4 1   
     3    1    5 1   
     4    1    6 1   
     5    2    3 2   
     6    2    7 1   
     7    7    8 1   
     8    7   15 1   
     9    8    9 1   
    10    8   11 1   
    11    8   16 1   
    12    9   10 2   
    13    9   19 1   
    14   11   12 1   
    15   11   17 1   
    16   11   18 1   
    17   12   13 1   
    18   12   14 1   
    19   19   20 1   
    20   19   24 1   
    21   20   21 1   
    22   20   23 1   
    23   20   25 1   
    24   21   22 2   
    25   21   29 1   
    26   23   26 1   
    27   23   27 1   
    28   23   28 1   
    29   29   30 1   
    30   29   37 1   
    31   30   31 1   
    32   30   33 1   
    33   30   38 1   
    34   31   32 2   
    35   31   41 1   
    36   33   34 1   
    37   33   39 1   
    38   33   40 1   
    39   34   35 1   
    40   34   36 1   
    41   41   42 1   
    42   41   45 1   
    43   42   43 1   
    44   42   46 1   
    45   42   47 1   
    46   43   44 2   
    47   43   48 1   
    48   48   49 1   
    49   48   56 1   
    50   49   50 1   
    51   49   52 1   
    52   49   57 1   
    53   50   51 2   
    54   50   62 1   
    55   52   53 1   
    56   52   58 1   
    57   52   59 1   
    58   53   54 1   
    59   53   55 2   
    60   54   60 1   
    61   54   61 1   
    62   62   63 1   
    63   62   66 1   
    64   63   64 1   
    65   63   67 1   
    66   63   68 1   
    67   64   65 2   
    68   64   69 1   
    69   69   70 1   
    70   69   76 1   
    71   70   71 1   
    72   70   73 1   
    73   70   77 1   
    74   71   72 2   
    75   71   83 1   
    76   73   74 1   
    77   73   75 1   
    78   73   78 1   
    79   74   80 1   
    80   74   81 1   
    81   74   82 1   
    82   75   79 1   
    83   83   84 1   
    84   83   91 1   
    85   84   85 1   
    86   84   87 1   
    87   84   92 1   
    88   85   86 2   
    89   85  102 1   
    90   87   88 1   
    91   87   89 1   
    92   87   93 1   
    93   88   90 1   
    94   88   94 1   
    95   88   95 1   
    96   89   96 1   
    97   89   97 1   
    98   89   98 1   
    99   90   99 1   
   100   90  100 1   
   101   90  101 1   
   102  102  103 1   
   103  102  110 1   
   104  103  104 1   
   105  103  106 1   
   106  103  111 1   
   107  104  105 2   
   108  104  114 1   
   109  106  107 1   
   110  106  112 1   
   111  106  113 1   
   112  107  108 1   
   113  107  109 1   
   114  114  115 1   
   115  114  125 1   
   116  115  116 1   
   117  115  118 1   
   118  115  126 1   
   119  116  117 2   
   120  116  134 1   
   121  118  119 1   
   122  118  127 1   
   123  118  128 1   
   124  119  120 ar  
   125  119  121 ar  
   126  120  122 ar  
   127  120  129 1   
   128  121  123 ar  
   129  121  130 1   
   130  122  124 ar  
   131  122  131 1   
   132  123  124 ar  
   133  123  132 1   
   134  124  133 1   
   135  134  135 1   
   136  134  140 1   
   137  135  136 1   
   138  135  138 1   
   139  135  141 1   
   140  136  137 2   
   141  136  148 1   
   142  138  139 1   
   143  138  142 1   
   144  138  143 1   
   145  139  140 1   
   146  139  144 1   
   147  139  145 1   
   148  140  146 1   
   149  140  147 1   
   150  148  149 1   
   151  148  157 1   
   152  149  150 1   
   153  149  152 1   
   154  149  158 1   
   155  150  151 2   
   156  150  163 1   
   157  152  153 1   
   158  152  159 1   
   159  152  160 1   
   160  153  154 1   
   161  153  161 1   
   162  153  162 1   
   163  154  155 1   
   164  154  156 1   
   165  163  164 1   
   166  163  168 1   
   167  164  165 1   
   168  164  166 1   
   169  164  167 1   
   170  170  171 1   
   171  170  172 1   
   172  173  174 1   
   173  173  175 1   
   174  176  177 1   
   175  176  178 1   
   176  179  180 1   
   177  179  181 1   
@<TRIPOS>SUBSTRUCTURE
     1 MOL         1 TEMP              0 ****  ****    0 ROOT
