@<TRIPOS>MOLECULE
MOL
  195   189     1     0     0
SMALL
resp


@<TRIPOS>ATOM
      1 C1          3.5830    6.9040   -2.2310 c3        1 MOL     -0.348130
      2 C2          3.3700    5.3740   -2.0050 c         1 MOL      0.659753
      3 O1          2.7480    4.6780   -2.8550 o         1 MOL     -0.575913
      4 H1          3.2930    7.1640   -3.2490 hc        1 MOL      0.094690
      5 H2          2.9700    7.4640   -1.5250 hc        1 MOL      0.094690
      6 H3          4.6330    7.1520   -2.0780 hc        1 MOL      0.094690
      7 N1          3.7640    4.8800   -0.8360 n         1 MOL     -0.577534
      8 C3          3.5940    3.4820   -0.4550 c3        1 MOL      0.389031
      9 C4          2.1960    3.1430    0.0840 c         1 MOL      0.303581
     10 O2          1.9270    2.6010    1.1300 o         1 MOL     -0.372297
     11 C5          4.7270    2.9840    0.4690 c3        1 MOL     -0.286047
     12 C6          5.0330    3.7810    1.7540 c         1 MOL      0.782118
     13 O3          5.6980    3.2220    2.5940 o         1 MOL     -0.730697
     14 O4          4.6010    4.9470    1.8660 o         1 MOL     -0.730697
     15 H4          4.1140    5.4250   -0.0600 hn        1 MOL      0.296230
     16 H5          3.7160    2.8370   -1.3230 h1        1 MOL     -0.001945
     17 H6          5.6430    2.9330   -0.1190 hc        1 MOL      0.021791
     18 H7          4.6050    1.9480    0.7880 hc        1 MOL      0.021791
     19 N2          1.1880    3.5610   -0.7130 n         1 MOL     -0.300098
     20 C7         -0.1950    3.2350   -0.5220 c3        1 MOL      0.084085
     21 C8         -0.8070    2.5370   -1.8000 c         1 MOL      0.354751
     22 O5         -0.3930    2.9390   -2.8790 o         1 MOL     -0.466317
     23 C9         -1.0280    4.5660   -0.2940 c3        1 MOL      0.217969
     24 C10        -0.4950    5.2900    0.9550 c3        1 MOL     -0.351771
     25 C11        -1.0270    4.5530    2.1660 c3        1 MOL      0.077203
     26 C12        -0.9790    5.3630    3.4680 c3        1 MOL      0.100771
     27 N3         -1.5620    4.6550    4.6170 n4        1 MOL     -0.372344
     28 H8          1.5550    4.0900   -1.4990 hn        1 MOL      0.222249
     29 H9         -0.2590    2.5980    0.3580 h1        1 MOL      0.034190
     30 H10        -2.1080    4.4620   -0.3340 hc        1 MOL     -0.014106
     31 H11        -0.9000    5.2450   -1.1320 hc        1 MOL     -0.014106
     32 H12        -0.7160    6.3480    0.8710 hc        1 MOL      0.098024
     33 H13         0.5990    5.2960    1.0100 hc        1 MOL      0.098024
     34 H14        -0.4740    3.6120    2.2550 hc        1 MOL      0.020019
     35 H15        -2.0600    4.3150    1.9040 hc        1 MOL      0.020019
     36 H16        -1.5120    6.2990    3.2710 hx        1 MOL      0.057766
     37 H17         0.0350    5.6910    3.7030 hx        1 MOL      0.057766
     38 H18        -1.2150    5.0560    5.4770 hn        1 MOL      0.329926
     39 H19        -2.5560    4.7470    4.5860 hn        1 MOL      0.329926
     40 H20        -1.4450    3.6510    4.5820 hn        1 MOL      0.329926
     41 N4         -1.6210    1.4590   -1.7040 n         1 MOL     -0.285010
     42 C13        -1.9450    0.6400   -0.5780 c3        1 MOL     -0.046216
     43 C14        -2.2500    1.3800    0.7510 c         1 MOL      0.328654
     44 O6         -1.5920    1.2250    1.7180 o         1 MOL     -0.472891
     45 C15        -0.8630   -0.4960   -0.4480 c3        1 MOL      0.786280
     46 C16        -0.7240   -1.4130   -1.6500 c         1 MOL      0.540790
     47 O7          0.0580   -1.1270   -2.5880 o         1 MOL     -0.839490
     48 O8         -1.3730   -2.4980   -1.7740 o         1 MOL     -0.839490
     49 H21        -1.9320    1.1410   -2.6120 hn        1 MOL      0.227550
     50 H22        -2.8310    0.0330   -0.7610 h1        1 MOL      0.053633
     51 H23        -0.9810   -1.1320    0.4280 hc        1 MOL     -0.136247
     52 H24         0.1130   -0.0130   -0.3950 hc        1 MOL     -0.136247
     53 N5         -3.3400    2.1780    0.8240 n         1 MOL     -0.399232
     54 C17        -4.3960    2.3800   -0.2800 c3        1 MOL      0.158301
     55 C18        -5.4250    3.4740    0.0560 c         1 MOL      0.449415
     56 O9         -5.0930    4.3510    0.8860 o         1 MOL     -0.549831
     57 H25        -3.4870    2.7630    1.6440 hn        1 MOL      0.260648
     58 H26        -4.8630    1.4020   -0.4330 h1        1 MOL      0.015003
     59 H27        -3.9820    2.5040   -1.2750 h1        1 MOL      0.015003
     60 N6         -6.5620    3.6070   -0.6660 n         1 MOL     -0.437993
     61 C19        -6.9620    2.6830   -1.8000 c3        1 MOL      0.091115
     62 C20        -7.5870    1.4150   -1.2540 c         1 MOL      0.550551
     63 O10        -8.0090    1.4390   -0.1180 o         1 MOL     -0.462212
     64 C21        -7.8630    3.3520   -2.8670 c3        1 MOL     -0.183864
     65 C22        -9.1940    3.8670   -2.2920 c         1 MOL      0.724639
     66 O11        -9.1640    4.9970   -1.8140 o         1 MOL     -0.673970
     67 O12       -10.2350    3.1340   -2.3160 o         1 MOL     -0.673970
     68 H28        -7.1600    4.3670   -0.3780 hn        1 MOL      0.333520
     69 H29        -6.0710    2.3660   -2.3470 h1        1 MOL     -0.005234
     70 H30        -8.1080    2.6920   -3.6940 hc        1 MOL      0.027750
     71 H31        -7.3290    4.2230   -3.2320 hc        1 MOL      0.027750
     72 N7         -7.7400    0.3250   -2.0810 n         1 MOL     -0.457344
     73 C23        -8.2930   -0.9410   -1.6340 c3        1 MOL     -0.151694
     74 C24        -7.4840   -1.8820   -0.7500 c         1 MOL      0.532078
     75 O13        -7.9100   -3.0140   -0.6570 o         1 MOL     -0.563047
     76 H32        -7.4000    0.4030   -3.0300 hn        1 MOL      0.289279
     77 H33        -8.6170   -1.5170   -2.5030 h1        1 MOL      0.129487
     78 H34        -9.2350   -0.6420   -1.1610 h1        1 MOL      0.129487
     79 N8         -6.4270   -1.3810   -0.1660 n         1 MOL     -0.336666
     80 C25        -5.3900   -2.2220    0.5530 c3        1 MOL      0.276905
     81 C26        -4.8260   -1.4160    1.7670 c         1 MOL      0.272445
     82 O14        -5.0560   -0.2190    1.8950 o         1 MOL     -0.424584
     83 C27        -4.2900   -2.6090   -0.5120 c3        1 MOL      0.453152
     84 C28        -4.9040   -3.4300   -1.6660 c3        1 MOL     -0.564457
     85 O15        -3.1240   -3.1420    0.0150 oh        1 MOL     -0.743515
     86 H35        -6.2730   -0.3880   -0.1100 hn        1 MOL      0.113129
     87 H36        -5.8850   -3.0960    0.9760 h1        1 MOL      0.002143
     88 H37        -3.8990   -1.6910   -0.9370 h1        1 MOL     -0.124837
     89 H38        -2.4930   -2.9680   -0.6820 ho        1 MOL      0.464908
     90 H39        -5.4460   -4.2530   -1.1830 hc        1 MOL      0.141602
     91 H40        -5.5660   -2.8580   -2.3140 hc        1 MOL      0.141602
     92 H41        -4.0940   -3.7980   -2.2880 hc        1 MOL      0.141602
     93 N9         -4.0510   -2.0900    2.6380 n         1 MOL     -0.124380
     94 C29        -3.2880   -1.6510    3.7590 c3        1 MOL     -0.115373
     95 C30        -1.7830   -1.9940    3.6300 c         1 MOL      0.503755
     96 O16        -0.9690   -1.7460    4.5110 o         1 MOL     -0.538161
     97 C31        -3.9790   -2.1660    5.0820 c3        1 MOL     -0.021204
     98 C32        -3.8320   -3.6900    5.3500 c3        1 MOL      0.231028
     99 C33        -5.4470   -1.6380    4.9820 c3        1 MOL     -0.123428
    100 C34        -4.9010   -4.3090    6.2830 c3        1 MOL     -0.228358
    101 H42        -4.0540   -3.0930    2.5290 hn        1 MOL      0.210320
    102 H43        -3.2630   -0.5660    3.7830 h1        1 MOL      0.124960
    103 H44        -3.5090   -1.7010    5.9510 hc        1 MOL      0.031134
    104 H45        -2.8410   -3.8990    5.7500 hc        1 MOL     -0.050334
    105 H46        -3.8830   -4.2190    4.3970 hc        1 MOL     -0.050334
    106 H47        -6.0680   -2.3160    4.3950 hc        1 MOL      0.036885
    107 H48        -5.9410   -1.6990    5.9430 hc        1 MOL      0.036885
    108 H49        -5.5340   -0.6190    4.6150 hc        1 MOL      0.036885
    109 H50        -5.7570   -4.6290    5.6840 hc        1 MOL      0.052738
    110 H51        -4.4970   -5.2000    6.7750 hc        1 MOL      0.052738
    111 H52        -5.2160   -3.6350    7.0820 hc        1 MOL      0.052738
    112 N10        -1.4550   -2.7270    2.5250 n         1 MOL     -0.351207
    113 C35        -0.0980   -3.3570    2.3510 c3        1 MOL      0.150160
    114 C36         0.8920   -2.4660    1.6970 c         1 MOL      0.436956
    115 O17         1.1860   -2.5320    0.5110 o         1 MOL     -0.497331
    116 C37        -0.3460   -4.6650    1.5160 c3        1 MOL      0.111829
    117 C38        -1.2710   -5.8320    2.0100 c3        1 MOL     -0.451676
    118 O18         0.8440   -5.4010    1.3630 oh        1 MOL     -0.650968
    119 H53        -2.0670   -2.7390    1.7270 hn        1 MOL      0.130648
    120 H54         0.3030   -3.5920    3.3350 h1        1 MOL      0.056630
    121 H55        -0.5950   -4.3410    0.5010 h1        1 MOL      0.206692
    122 H56         0.9340   -5.9120    2.1770 ho        1 MOL      0.425644
    123 H57        -1.0620   -6.3450    2.9450 hc        1 MOL      0.120259
    124 H58        -2.2940   -5.4600    1.9990 hc        1 MOL      0.120259
    125 H59        -1.3640   -6.5380    1.1820 hc        1 MOL      0.120259
    126 N11         1.4140   -1.6110    2.5560 n         1 MOL     -0.506142
    127 C39         2.4590   -0.6320    2.2670 c3        1 MOL     -0.258409
    128 C40         3.8300   -1.4160    2.0090 c         1 MOL      0.910718
    129 O19         4.1350   -2.2440    2.8440 o         1 MOL     -0.591223
    130 C41         2.4880    0.4210    3.3070 c3        1 MOL      0.578327
    131 C42         2.8470   -0.0020    4.7090 c3        1 MOL     -0.415477
    132 O20         1.2800    1.1070    3.2350 oh        1 MOL     -0.547036
    133 H60         1.0900   -1.6730    3.5130 hn        1 MOL      0.341571
    134 H61         2.1210   -0.1830    1.3350 h1        1 MOL      0.103404
    135 H62         3.2180    1.1500    2.9410 h1        1 MOL     -0.041181
    136 H63         1.2010    1.5350    2.3740 ho        1 MOL      0.184897
    137 H64         3.8570   -0.4110    4.7340 hc        1 MOL      0.098992
    138 H65         2.7280    0.8090    5.4230 hc        1 MOL      0.098992
    139 H66         2.1980   -0.8140    5.0220 hc        1 MOL      0.098992
    140 N12         4.6500   -0.9970    1.0350 n         1 MOL     -0.818363
    141 C43         6.0530   -1.4360    0.8170 c3        1 MOL      0.113962
    142 C44         6.4930   -1.5250   -0.6780 c         1 MOL      0.353459
    143 O21         7.5350   -2.0400   -1.1010 o         1 MOL     -0.519305
    144 C45         6.9220   -0.4900    1.5910 c3        1 MOL      0.002199
    145 C46         8.1320   -1.2600    2.1710 c3        1 MOL     -0.181839
    146 C47         8.8000   -0.3040    3.2340 c3        1 MOL      0.017481
    147 C48        10.2550   -0.8150    3.6050 c3        1 MOL      0.061423
    148 N13        10.4210   -0.3270    4.9660 n4        1 MOL     -0.307091
    149 H67         4.1650   -0.4190    0.3480 hn        1 MOL      0.318036
    150 H68         6.2180   -2.4260    1.2480 h1        1 MOL      0.081063
    151 H69         6.4050   -0.0250    2.4350 hc        1 MOL      0.065406
    152 H70         7.2480    0.2890    0.8970 hc        1 MOL      0.065406
    153 H71         8.8590   -1.4010    1.3740 hc        1 MOL      0.065326
    154 H72         7.8310   -2.2110    2.6060 hc        1 MOL      0.065326
    155 H73         8.1470   -0.2330    4.1020 hc        1 MOL      0.049226
    156 H74         8.9220    0.7320    2.9150 hc        1 MOL      0.049226
    157 H75        11.0120   -0.3850    2.9560 hx        1 MOL      0.070043
    158 H76        10.3960   -1.8950    3.5840 hx        1 MOL      0.070043
    159 H77        10.5030    0.6780    5.0740 hn        1 MOL      0.281713
    160 H78         9.6760   -0.6980    5.5300 hn        1 MOL      0.281713
    161 H79        11.2500   -0.7550    5.3350 hn        1 MOL      0.281713
    162 N14         5.7490   -0.7830   -1.5360 n         1 MOL      0.031145
    163 C49         6.0390   -0.5410   -2.9630 c3        1 MOL     -0.562547
    164 C50         6.8410    0.7560   -3.0570 c         1 MOL      0.433962
    165 O22         6.4860    1.7760   -2.4360 o         1 MOL     -0.470123
    166 C51         4.8770   -0.7290   -3.9470 c3        1 MOL      0.487317
    167 C52         4.2040   -2.1530   -3.9240 c3        1 MOL     -0.009484
    168 C53         3.2150   -2.3120   -5.0820 c         1 MOL      0.529381
    169 O23         3.4630   -1.9070   -6.2350 o         1 MOL     -0.649598
    170 O24         2.0850   -2.9650   -4.9000 o         1 MOL     -0.649598
    171 H80         4.9210   -0.2920   -1.2220 hn        1 MOL      0.251767
    172 H81         6.7260   -1.2970   -3.3400 h1        1 MOL      0.172058
    173 H82         5.2600   -0.5670   -4.9560 hc        1 MOL     -0.065809
    174 H83         4.0380   -0.0230   -3.8610 hc        1 MOL     -0.065809
    175 H84         3.6800   -2.1890   -2.9760 hc        1 MOL     -0.048306
    176 H85         5.0290   -2.8680   -3.9790 hc        1 MOL     -0.048306
    177 N15         8.0270    0.7440   -3.6130 n         1 MOL     -0.212117
    178 C54         9.1330    1.7240   -3.4140 c3        1 MOL     -0.232685
    179 H86         8.8230    2.7010   -3.7860 h1        1 MOL      0.112816
    180 H87         9.3680    1.7980   -2.3520 h1        1 MOL      0.112816
    181 H88        10.0160    1.3920   -3.9600 h1        1 MOL      0.112816
    182 H89         8.3570   -0.1170   -4.0390 hn        1 MOL      0.246553
    183 Ca1        -0.2460   -3.3100   -4.0060 Ca        1 MOL      1.795394
    184 O25         0.9700   -4.7350   -2.0950 oh        1 MOL     -0.894520
    185 H90         1.7890   -5.2390   -1.9810 ho        1 MOL      0.439730
    186 H91         0.6480   -4.5900   -1.2100 ho        1 MOL      0.439730
    187 O26         0.6530   -5.5280   -5.1840 oh        1 MOL     -0.894520
    188 H92         1.5380   -5.5350   -5.5400 ho        1 MOL      0.439730
    189 H93         0.4640   -6.4420   -4.9840 ho        1 MOL      0.439730
    190 O27         0.1810   -1.7740   -6.4460 oh        1 MOL     -0.894520
    191 H94         0.1760   -0.8400   -6.6450 ho        1 MOL      0.439730
    192 H95         1.1040   -1.9820   -6.2920 ho        1 MOL      0.439730
    193 O28        -1.8290   -5.3840   -3.0930 oh        1 MOL     -0.894520
    194 H96        -1.8690   -5.7050   -2.1960 ho        1 MOL      0.439730
    195 H97        -2.5420   -5.8390   -3.5440 ho        1 MOL      0.439730
@<TRIPOS>BOND
     1    1    2 1   
     2    1    4 1   
     3    1    5 1   
     4    1    6 1   
     5    2    3 2   
     6    2    7 1   
     7    7    8 1   
     8    7   15 1   
     9    8    9 1   
    10    8   11 1   
    11    8   16 1   
    12    9   10 2   
    13    9   19 1   
    14   11   12 1   
    15   11   17 1   
    16   11   18 1   
    17   12   13 1   
    18   12   14 1   
    19   19   20 1   
    20   19   28 1   
    21   20   21 1   
    22   20   23 1   
    23   20   29 1   
    24   21   22 2   
    25   21   41 1   
    26   23   24 1   
    27   23   30 1   
    28   23   31 1   
    29   24   25 1   
    30   24   32 1   
    31   24   33 1   
    32   25   26 1   
    33   25   34 1   
    34   25   35 1   
    35   26   27 1   
    36   26   36 1   
    37   26   37 1   
    38   27   38 1   
    39   27   39 1   
    40   27   40 1   
    41   41   42 1   
    42   41   49 1   
    43   42   43 1   
    44   42   45 1   
    45   42   50 1   
    46   43   44 2   
    47   43   53 1   
    48   45   46 1   
    49   45   51 1   
    50   45   52 1   
    51   46   47 1   
    52   46   48 1   
    53   53   54 1   
    54   53   57 1   
    55   54   55 1   
    56   54   58 1   
    57   54   59 1   
    58   55   56 2   
    59   55   60 1   
    60   60   61 1   
    61   60   68 1   
    62   61   62 1   
    63   61   64 1   
    64   61   69 1   
    65   62   63 2   
    66   62   72 1   
    67   64   65 1   
    68   64   70 1   
    69   64   71 1   
    70   65   66 1   
    71   65   67 1   
    72   72   73 1   
    73   72   76 1   
    74   73   74 1   
    75   73   77 1   
    76   73   78 1   
    77   74   75 2   
    78   74   79 1   
    79   79   80 1   
    80   79   86 1   
    81   80   81 1   
    82   80   83 1   
    83   80   87 1   
    84   81   82 2   
    85   81   93 1   
    86   83   84 1   
    87   83   85 1   
    88   83   88 1   
    89   84   90 1   
    90   84   91 1   
    91   84   92 1   
    92   85   89 1   
    93   93   94 1   
    94   93  101 1   
    95   94   95 1   
    96   94   97 1   
    97   94  102 1   
    98   95   96 2   
    99   95  112 1   
   100   97   98 1   
   101   97   99 1   
   102   97  103 1   
   103   98  100 1   
   104   98  104 1   
   105   98  105 1   
   106   99  106 1   
   107   99  107 1   
   108   99  108 1   
   109  100  109 1   
   110  100  110 1   
   111  100  111 1   
   112  112  113 1   
   113  112  119 1   
   114  113  114 1   
   115  113  116 1   
   116  113  120 1   
   117  114  115 2   
   118  114  126 1   
   119  116  117 1   
   120  116  118 1   
   121  116  121 1   
   122  117  123 1   
   123  117  124 1   
   124  117  125 1   
   125  118  122 1   
   126  126  127 1   
   127  126  133 1   
   128  127  128 1   
   129  127  130 1   
   130  127  134 1   
   131  128  129 2   
   132  128  140 1   
   133  130  131 1   
   134  130  132 1   
   135  130  135 1   
   136  131  137 1   
   137  131  138 1   
   138  131  139 1   
   139  132  136 1   
   140  140  141 1   
   141  140  149 1   
   142  141  142 1   
   143  141  144 1   
   144  141  150 1   
   145  142  143 2   
   146  142  162 1   
   147  144  145 1   
   148  144  151 1   
   149  144  152 1   
   150  145  146 1   
   151  145  153 1   
   152  145  154 1   
   153  146  147 1   
   154  146  155 1   
   155  146  156 1   
   156  147  148 1   
   157  147  157 1   
   158  147  158 1   
   159  148  159 1   
   160  148  160 1   
   161  148  161 1   
   162  162  163 1   
   163  162  171 1   
   164  163  164 1   
   165  163  166 1   
   166  163  172 1   
   167  164  165 2   
   168  164  177 1   
   169  166  167 1   
   170  166  173 1   
   171  166  174 1   
   172  167  168 1   
   173  167  175 1   
   174  167  176 1   
   175  168  169 1   
   176  168  170 1   
   177  177  178 1   
   178  177  182 1   
   179  178  179 1   
   180  178  180 1   
   181  178  181 1   
   182  184  185 1   
   183  184  186 1   
   184  187  188 1   
   185  187  189 1   
   186  190  191 1   
   187  190  192 1   
   188  193  194 1   
   189  193  195 1   
@<TRIPOS>SUBSTRUCTURE
     1 MOL         1 TEMP              0 ****  ****    0 ROOT
