@<TRIPOS>MOLECULE
MOL
  192   187     1     0     0
SMALL
resp


@<TRIPOS>ATOM
      1 C1          3.9920    4.3170   -2.9490 c3        1 MOL     -0.429367
      2 C2          4.8630    3.4360   -2.1180 c         1 MOL      0.908615
      3 O1          4.5650    2.9680   -1.0570 o         1 MOL     -0.786262
      4 H1          2.9590    4.2260   -2.6130 hc        1 MOL      0.108474
      5 H2          4.3160    5.3530   -2.8470 hc        1 MOL      0.108474
      6 H3          4.0620    4.0160   -3.9950 hc        1 MOL      0.108474
      7 N1          6.0780    3.1710   -2.5810 n         1 MOL     -0.747861
      8 C3          7.0530    2.2860   -2.0840 c3        1 MOL      0.489244
      9 C4          6.3710    0.9760   -1.6800 c         1 MOL      0.340096
     10 O2          6.2260    0.6250   -0.4860 o         1 MOL     -0.431267
     11 C5          7.8810    2.9620   -0.9840 c3        1 MOL     -0.222402
     12 C6          7.1990    3.7380    0.1130 c         1 MOL      0.788456
     13 O3          6.5050    3.1550    0.9740 o         1 MOL     -0.751638
     14 O4          7.2890    5.0120    0.2040 o         1 MOL     -0.751638
     15 H4          6.3180    3.6440   -3.4350 hn        1 MOL      0.304239
     16 H5          7.8080    2.0180   -2.8180 h1        1 MOL     -0.021215
     17 H6          8.5170    3.6270   -1.5740 hc        1 MOL      0.014212
     18 H7          8.4570    2.1260   -0.5830 hc        1 MOL      0.014212
     19 N2          6.0610    0.2030   -2.7650 n         1 MOL     -0.509547
     20 C7          5.4730   -1.2040   -2.8770 c3        1 MOL      0.132261
     21 C8          6.3120   -2.3150   -2.2150 c         1 MOL      0.353856
     22 O5          6.6340   -3.2780   -2.9530 o         1 MOL     -0.522922
     23 C9          3.9530   -1.2290   -2.4750 c3        1 MOL      0.295140
     24 C10         3.3160   -2.6180   -2.8870 c3        1 MOL     -0.047517
     25 C11         3.0410   -0.0650   -3.0870 c3        1 MOL     -0.624819
     26 C12         3.4580   -3.1380   -4.2960 c3        1 MOL     -0.065837
     27 H8          6.1250    0.7180   -3.6290 hn        1 MOL      0.247587
     28 H9          5.4480   -1.3730   -3.9550 h1        1 MOL      0.050573
     29 H10         3.9050   -1.1520   -1.3900 hc        1 MOL     -0.133473
     30 H11         2.2570   -2.6290   -2.6610 hc        1 MOL      0.049080
     31 H12         3.7810   -3.3570   -2.2320 hc        1 MOL      0.049080
     32 H13         3.1360   -0.0730   -4.1720 hc        1 MOL      0.155318
     33 H14         1.9900   -0.1690   -2.8180 hc        1 MOL      0.155318
     34 H15         3.4430    0.8250   -2.6090 hc        1 MOL      0.155318
     35 H16         2.8700   -2.5130   -4.9640 hc        1 MOL     -0.000681
     36 H17         4.4910   -3.0310   -4.6150 hc        1 MOL     -0.000681
     37 H18         3.1880   -4.1940   -4.3340 hc        1 MOL     -0.000681
     38 N3          6.6210   -2.2150   -0.9090 n         1 MOL     -0.073495
     39 C13         7.3980   -3.2190   -0.2670 c3        1 MOL     -0.075724
     40 C14         6.8000   -4.6260   -0.1020 c         1 MOL      0.532167
     41 O6          7.5850   -5.6330   -0.2490 o         1 MOL     -0.584740
     42 C15         7.8160   -2.6720    1.1850 c3        1 MOL     -0.132051
     43 C16         8.6400   -1.3930    1.2000 c         1 MOL      0.733435
     44 O7          8.6140   -0.6880    2.2340 o         1 MOL     -0.699724
     45 O8          9.6020   -1.3570    0.3780 o         1 MOL     -0.699724
     46 H19         6.4350   -1.3620   -0.3940 hn        1 MOL      0.128662
     47 H20         8.3510   -3.3420   -0.7770 h1        1 MOL      0.067120
     48 H21         8.2810   -3.4880    1.7380 hc        1 MOL      0.044522
     49 H22         6.8870   -2.4900    1.7290 hc        1 MOL      0.044522
     50 N4          5.4800   -4.7770    0.0390 n         1 MOL     -0.434245
     51 C17         4.5820   -3.7870    0.6410 c3        1 MOL      0.094793
     52 C18         3.1700   -4.3400    0.9520 c         1 MOL      0.593000
     53 O9          2.7430   -5.4120    0.4790 o         1 MOL     -0.590786
     54 H23         5.1190   -5.7160    0.0080 hn        1 MOL      0.271840
     55 H24         4.4490   -2.9340   -0.0230 h1        1 MOL     -0.006172
     56 H25         5.1620   -3.4120    1.4870 h1        1 MOL     -0.006172
     57 N5          2.3280   -3.7380    1.7680 n         1 MOL     -0.394467
     58 C19         2.4610   -2.4060    2.3420 c3        1 MOL      0.065816
     59 C20         2.6160   -1.2670    1.2670 c         1 MOL      0.419407
     60 O10         3.6360   -0.6670    1.1120 o         1 MOL     -0.503263
     61 C21         3.4240   -2.2820    3.5970 c3        1 MOL     -0.453157
     62 C22         3.1560   -3.3830    4.6230 c         1 MOL      0.745831
     63 O11         2.0360   -3.4020    5.1780 o         1 MOL     -0.717312
     64 O12         4.0980   -4.1700    4.8850 o         1 MOL     -0.717312
     65 H26         1.4740   -4.2500    1.9330 hn        1 MOL      0.304634
     66 H27         1.5100   -2.2330    2.8470 h1        1 MOL      0.049337
     67 H28         3.1800   -1.3590    4.1240 hc        1 MOL      0.125617
     68 H29         4.4660   -2.4260    3.3170 hc        1 MOL      0.125617
     69 N6          1.5230   -0.7060    0.6750 n         1 MOL     -0.187724
     70 C23         0.1130   -1.0860    0.8670 c3        1 MOL     -0.088934
     71 C24        -0.3370   -2.4440    0.2270 c         1 MOL      0.443659
     72 O13         0.3090   -3.0010   -0.6490 o         1 MOL     -0.520181
     73 H30         1.6880    0.1210    0.1190 hn        1 MOL      0.220867
     74 H31        -0.3960   -0.2260    0.4130 h1        1 MOL      0.061568
     75 H32        -0.0110   -1.1450    1.9520 h1        1 MOL      0.061568
     76 N7         -1.5630   -2.9300    0.5780 n         1 MOL     -0.275066
     77 C25        -2.2290   -4.1260   -0.1030 c3        1 MOL     -0.163074
     78 C26        -3.1140   -3.9370   -1.3410 c         1 MOL      0.383352
     79 O14        -3.5860   -4.8910   -1.8990 o         1 MOL     -0.494737
     80 C27        -3.0300   -4.9540    0.9230 c3        1 MOL     -0.002259
     81 C28        -4.2560   -4.2610    1.6340 c3        1 MOL     -0.158804
     82 C29        -5.3260   -3.9300    0.6170 c         1 MOL      0.423992
     83 N8         -6.0850   -4.9060    0.1510 n         1 MOL     -0.587976
     84 O15        -5.4970   -2.8120    0.2640 o         1 MOL     -0.466922
     85 H33        -2.0590   -2.3810    1.2660 hn        1 MOL      0.242532
     86 H34        -1.3750   -4.7180   -0.4140 h1        1 MOL      0.182822
     87 H35        -2.3740   -5.2740    1.7260 hc        1 MOL      0.034353
     88 H36        -3.4770   -5.7900    0.3680 hc        1 MOL      0.034353
     89 H37        -3.9330   -3.4030    2.2080 hc        1 MOL      0.073815
     90 H38        -4.6430   -5.0750    2.2390 hc        1 MOL      0.073815
     91 H39        -6.1020   -5.7810    0.6470 hn        1 MOL      0.318469
     92 H40        -6.8400   -4.6460   -0.4670 hn        1 MOL      0.318469
     93 N9         -3.3070   -2.6970   -1.7630 n         1 MOL     -0.053210
     94 C30        -3.7090   -2.3300   -3.0830 c3        1 MOL     -0.045502
     95 C31        -5.1280   -1.7260   -3.1830 c         1 MOL      0.416942
     96 O16        -5.6710   -1.5250   -4.3240 o         1 MOL     -0.583281
     97 C32        -2.6140   -1.4650   -3.7380 c3        1 MOL      0.148259
     98 C33        -1.1350   -1.9560   -3.6080 c3        1 MOL     -0.195177
     99 C34        -2.7610    0.0180   -3.3120 c3        1 MOL     -0.195177
    100 H41        -3.0020   -1.9680   -1.1360 hn        1 MOL      0.132720
    101 H42        -3.8870   -3.2640   -3.6280 h1        1 MOL      0.083048
    102 H43        -2.8690   -1.5200   -4.7990 hc        1 MOL      0.001916
    103 H44        -0.4670   -1.4690   -4.3150 hc        1 MOL      0.047799
    104 H45        -0.7900   -1.7440   -2.6010 hc        1 MOL      0.047799
    105 H46        -1.1760   -2.9970   -3.9410 hc        1 MOL      0.047799
    106 H47        -1.8810    0.5570   -3.6480 hc        1 MOL      0.047799
    107 H48        -3.6980    0.3920   -3.7420 hc        1 MOL      0.047799
    108 H49        -2.9010    0.1440   -2.2360 hc        1 MOL      0.047799
    109 N10        -5.8480   -1.3110   -2.1070 n         1 MOL     -0.116458
    110 C35        -7.1510   -0.6330   -2.1330 c3        1 MOL      0.041512
    111 C36        -7.2060    0.6740   -1.3070 c         1 MOL      0.519023
    112 O17        -8.2680    1.3040   -1.2750 o         1 MOL     -0.544717
    113 C37        -8.2050   -1.6500   -1.6510 c3        1 MOL     -0.179390
    114 C38        -8.2820   -2.8960   -2.4450 c         1 MOL      0.575876
    115 N11        -8.5470   -2.9080   -3.7290 n         1 MOL     -0.761435
    116 O18        -8.0440   -3.9670   -1.9130 o         1 MOL     -0.572241
    117 H50        -5.4840   -1.7330   -1.2550 hn        1 MOL      0.188442
    118 H51        -7.4990   -0.3350   -3.1190 h1        1 MOL      0.062127
    119 H52        -9.1540   -1.1260   -1.8110 hc        1 MOL      0.077068
    120 H53        -8.0460   -1.8950   -0.6110 hc        1 MOL      0.077068
    121 H54        -8.5700   -2.0440   -4.2650 hn        1 MOL      0.374075
    122 H55        -8.5610   -3.8590   -4.0540 hn        1 MOL      0.374075
    123 N12        -6.1390    0.9670   -0.5800 n         1 MOL     -0.623317
    124 C39        -6.0400    2.1040    0.3910 c3        1 MOL      0.587500
    125 C40        -4.6600    2.7750    0.4520 c         1 MOL      0.170751
    126 O19        -3.6610    2.3120   -0.1180 o         1 MOL     -0.351833
    127 C41        -6.3890    1.6440    1.8240 c3        1 MOL     -0.038220
    128 C42        -7.5230    0.7370    2.0470 ca        1 MOL      0.015603
    129 C43        -7.2750   -0.6750    2.2190 ca        1 MOL     -0.113190
    130 C44        -8.7910    1.2260    2.3050 ca        1 MOL     -0.113190
    131 C45        -8.2880   -1.5540    2.6120 ca        1 MOL     -0.280308
    132 C46        -9.7420    0.3630    2.8300 ca        1 MOL     -0.280308
    133 C47        -9.4880   -1.0550    3.0450 ca        1 MOL      0.353203
    134 O20       -10.4370   -1.8640    3.5130 oh        1 MOL     -0.527482
    135 H56        -5.2680    0.4620   -0.6670 hn        1 MOL      0.210749
    136 H57        -6.8580    2.7920    0.1570 h1        1 MOL     -0.071880
    137 H58        -6.6660    2.5410    2.3790 hc        1 MOL      0.037385
    138 H59        -5.5150    1.1910    2.2800 hc        1 MOL      0.037385
    139 H60        -6.3210   -1.0130    1.8360 ha        1 MOL      0.124076
    140 H61        -9.1500    2.2440    2.2390 ha        1 MOL      0.124076
    141 H62        -8.1890   -2.6070    2.3830 ha        1 MOL      0.131680
    142 H63       -10.6960    0.7000    3.2120 ha        1 MOL      0.131680
    143 H64       -10.1400   -2.7720    3.6580 ho        1 MOL      0.387438
    144 N13        -4.6140    3.9140    1.1120 n         1 MOL     -0.528494
    145 C48        -3.4770    4.6770    1.6180 c3        1 MOL      0.200125
    146 C49        -2.4760    5.2510    0.5710 c         1 MOL      0.349239
    147 O21        -2.0270    6.3880    0.6540 o         1 MOL     -0.540640
    148 C50        -2.6710    3.9610    2.7420 c3        1 MOL     -0.020653
    149 C51        -3.5690    3.7540    3.9660 c3        1 MOL     -0.091648
    150 C52        -2.9220    2.7900    4.8810 c         1 MOL      0.722269
    151 O22        -2.2210    3.2480    5.8420 o         1 MOL     -0.738300
    152 O23        -3.1790    1.5780    4.7360 o         1 MOL     -0.738300
    153 H65        -5.5120    4.2690    1.3710 hn        1 MOL      0.312553
    154 H66        -3.8450    5.6130    2.0400 h1        1 MOL      0.022908
    155 H67        -1.9000    4.6580    3.0650 hc        1 MOL      0.050775
    156 H68        -2.2650    3.0500    2.3190 hc        1 MOL      0.050775
    157 H69        -4.5690    3.3700    3.7230 hc        1 MOL     -0.028685
    158 H70        -3.7500    4.6790    4.5140 hc        1 MOL     -0.028685
    159 N14        -2.2100    4.5260   -0.4860 n         1 MOL     -0.117245
    160 C53        -1.1810    4.7770   -1.4970 c3        1 MOL     -0.244263
    161 C54        -1.6060    5.6340   -2.6970 c         1 MOL      0.617536
    162 O24        -0.7690    6.2640   -3.3370 o         1 MOL     -0.548479
    163 C55        -0.5120    3.4280   -1.9840 c3        1 MOL      0.146633
    164 C56        -0.1530    2.3840   -0.9080 c3        1 MOL      0.095181
    165 C57         1.0290    2.8280   -0.0800 c         1 MOL      0.671110
    166 O25         0.8790    3.8840    0.6090 o         1 MOL     -0.685555
    167 O26         2.0690    2.1200    0.0190 o         1 MOL     -0.685555
    168 H71        -2.5590    3.5800   -0.4840 hn        1 MOL      0.149472
    169 H72        -0.4570    5.4180   -0.9900 h1        1 MOL      0.151580
    170 H73         0.3450    3.6720   -2.6100 hc        1 MOL     -0.049357
    171 H74        -1.3100    2.9690   -2.5680 hc        1 MOL     -0.049357
    172 H75         0.1260    1.4540   -1.4080 hc        1 MOL     -0.045335
    173 H76        -1.0270    2.1970   -0.2770 hc        1 MOL     -0.045335
    174 N15        -2.9380    5.6910   -2.9400 n         1 MOL     -0.377028
    175 C58        -3.5510    6.6440   -3.9650 c3        1 MOL     -0.221783
    176 H77        -4.4870    7.0440   -3.5750 h1        1 MOL      0.101787
    177 H78        -2.8590    7.4640   -4.1580 h1        1 MOL      0.101787
    178 H79        -3.7450    6.1060   -4.8930 h1        1 MOL      0.101787
    179 H80        -3.6150    5.3690   -2.2730 hn        1 MOL      0.252900
    180 Ca1         4.2560    1.9750    1.3040 Ca        1 MOL      1.840019
    181 O27         2.5230    1.5320    3.2690 oh        1 MOL     -0.849721
    182 O28         3.1740    4.6670    1.2330 oh        1 MOL     -0.849721
    183 H81         2.6020    1.1160    4.1250 ho        1 MOL      0.406855
    184 H82         2.2850    4.4090    0.9930 ho        1 MOL      0.406855
    185 H83         1.7000    2.0110    3.3060 ho        1 MOL      0.406855
    186 H84         3.3300    5.4680    0.7360 ho        1 MOL      0.406855
    187 O29         6.0820    0.3900    2.7570 oh        1 MOL     -0.849721
    188 H85         6.0500    0.0650    3.6560 ho        1 MOL      0.406855
    189 H86         6.6870   -0.1980    2.3130 ho        1 MOL      0.406855
    190 O30         4.8190    3.3430    3.5780 oh        1 MOL     -0.849721
    191 H87         5.3440    4.1080    3.3410 ho        1 MOL      0.406855
    192 H88         4.2140    3.6760    4.2390 ho        1 MOL      0.406855
@<TRIPOS>BOND
     1    1    2 1   
     2    1    4 1   
     3    1    5 1   
     4    1    6 1   
     5    2    3 2   
     6    2    7 1   
     7    7    8 1   
     8    7   15 1   
     9    8    9 1   
    10    8   11 1   
    11    8   16 1   
    12    9   10 2   
    13    9   19 1   
    14   11   12 1   
    15   11   17 1   
    16   11   18 1   
    17   12   13 1   
    18   12   14 1   
    19   19   20 1   
    20   19   27 1   
    21   20   21 1   
    22   20   23 1   
    23   20   28 1   
    24   21   22 2   
    25   21   38 1   
    26   23   24 1   
    27   23   25 1   
    28   23   29 1   
    29   24   26 1   
    30   24   30 1   
    31   24   31 1   
    32   25   32 1   
    33   25   33 1   
    34   25   34 1   
    35   26   35 1   
    36   26   36 1   
    37   26   37 1   
    38   38   39 1   
    39   38   46 1   
    40   39   40 1   
    41   39   42 1   
    42   39   47 1   
    43   40   41 2   
    44   40   50 1   
    45   42   43 1   
    46   42   48 1   
    47   42   49 1   
    48   43   44 1   
    49   43   45 1   
    50   50   51 1   
    51   50   54 1   
    52   51   52 1   
    53   51   55 1   
    54   51   56 1   
    55   52   53 2   
    56   52   57 1   
    57   57   58 1   
    58   57   65 1   
    59   58   59 1   
    60   58   61 1   
    61   58   66 1   
    62   59   60 2   
    63   59   69 1   
    64   61   62 1   
    65   61   67 1   
    66   61   68 1   
    67   62   63 1   
    68   62   64 1   
    69   69   70 1   
    70   69   73 1   
    71   70   71 1   
    72   70   74 1   
    73   70   75 1   
    74   71   72 2   
    75   71   76 1   
    76   76   77 1   
    77   76   85 1   
    78   77   78 1   
    79   77   80 1   
    80   77   86 1   
    81   78   79 2   
    82   78   93 1   
    83   80   81 1   
    84   80   87 1   
    85   80   88 1   
    86   81   82 1   
    87   81   89 1   
    88   81   90 1   
    89   82   83 1   
    90   82   84 2   
    91   83   91 1   
    92   83   92 1   
    93   93   94 1   
    94   93  100 1   
    95   94   95 1   
    96   94   97 1   
    97   94  101 1   
    98   95   96 2   
    99   95  109 1   
   100   97   98 1   
   101   97   99 1   
   102   97  102 1   
   103   98  103 1   
   104   98  104 1   
   105   98  105 1   
   106   99  106 1   
   107   99  107 1   
   108   99  108 1   
   109  109  110 1   
   110  109  117 1   
   111  110  111 1   
   112  110  113 1   
   113  110  118 1   
   114  111  112 2   
   115  111  123 1   
   116  113  114 1   
   117  113  119 1   
   118  113  120 1   
   119  114  115 1   
   120  114  116 2   
   121  115  121 1   
   122  115  122 1   
   123  123  124 1   
   124  123  135 1   
   125  124  125 1   
   126  124  127 1   
   127  124  136 1   
   128  125  126 2   
   129  125  144 1   
   130  127  128 1   
   131  127  137 1   
   132  127  138 1   
   133  128  129 ar  
   134  128  130 ar  
   135  129  131 ar  
   136  129  139 1   
   137  130  132 ar  
   138  130  140 1   
   139  131  133 ar  
   140  131  141 1   
   141  132  133 ar  
   142  132  142 1   
   143  133  134 1   
   144  134  143 1   
   145  144  145 1   
   146  144  153 1   
   147  145  146 1   
   148  145  148 1   
   149  145  154 1   
   150  146  147 2   
   151  146  159 1   
   152  148  149 1   
   153  148  155 1   
   154  148  156 1   
   155  149  150 1   
   156  149  157 1   
   157  149  158 1   
   158  150  151 1   
   159  150  152 1   
   160  159  160 1   
   161  159  168 1   
   162  160  161 1   
   163  160  163 1   
   164  160  169 1   
   165  161  162 2   
   166  161  174 1   
   167  163  164 1   
   168  163  170 1   
   169  163  171 1   
   170  164  165 1   
   171  164  172 1   
   172  164  173 1   
   173  165  166 1   
   174  165  167 1   
   175  174  175 1   
   176  174  179 1   
   177  175  176 1   
   178  175  177 1   
   179  175  178 1   
   180  181  183 1   
   181  181  185 1   
   182  182  184 1   
   183  182  186 1   
   184  187  188 1   
   185  187  189 1   
   186  190  191 1   
   187  190  192 1   
@<TRIPOS>SUBSTRUCTURE
     1 MOL         1 TEMP              0 ****  ****    0 ROOT
