@<TRIPOS>MOLECULE
MOL
  188   182     1     0     0
SMALL
resp


@<TRIPOS>ATOM
      1 C1          7.0650    2.9310    1.6830 c3        1 MOL     -0.224881
      2 C2          7.2280    2.0160    0.4730 c         1 MOL      0.789485
      3 O1          6.4880    1.1050    0.3220 o         1 MOL     -0.558087
      4 H1          7.8890    2.7660    2.3760 hc        1 MOL      0.045617
      5 H2          7.0680    3.9710    1.3570 hc        1 MOL      0.045617
      6 H3          6.1210    2.7100    2.1820 hc        1 MOL      0.045617
      7 N1          8.2920    2.2890   -0.3260 n         1 MOL     -0.641431
      8 C3          8.8580    1.4230   -1.4120 c3        1 MOL      0.099975
      9 C4          9.2330   -0.0650   -1.1250 c         1 MOL      0.372576
     10 O2          9.9690   -0.6790   -1.9700 o         1 MOL     -0.510481
     11 C5          7.9240    1.4760   -2.5940 c3        1 MOL     -0.381816
     12 C6          7.8520    2.9130   -3.1210 c         1 MOL      0.796072
     13 O3          6.8390    3.5940   -3.0240 o         1 MOL     -0.678860
     14 O4          8.8380    3.3470   -3.7520 o         1 MOL     -0.678860
     15 H4          8.6710    3.2130   -0.2110 hn        1 MOL      0.350324
     16 H5          9.8530    1.8070   -1.6340 h1        1 MOL      0.088697
     17 H6          6.9590    1.0930   -2.2720 hc        1 MOL      0.124780
     18 H7          8.3720    0.9030   -3.4110 hc        1 MOL      0.124780
     19 N2          8.6740   -0.6800   -0.0870 n         1 MOL     -0.208908
     20 C7          8.7470   -2.0780    0.3440 c3        1 MOL     -0.004417
     21 C8          7.3980   -2.7490    0.4550 c         1 MOL      0.548082
     22 O5          7.3690   -3.9820    0.6130 o         1 MOL     -0.576414
     23 C9          9.5370   -2.0380    1.5630 c3        1 MOL      0.034998
     24 C10         8.9320   -1.2730    2.7050 c3        1 MOL      0.146340
     25 C11         9.7300   -1.4080    4.0390 c3        1 MOL     -0.066996
     26 C12        11.1170   -0.7230    4.1620 c3        1 MOL     -0.004384
     27 N3         11.5140   -0.6560    5.5700 n4        1 MOL     -0.105229
     28 H8          8.0540   -0.0580    0.3920 hn        1 MOL      0.091859
     29 H9          9.3050   -2.5630   -0.4610 h1        1 MOL      0.117161
     30 H10        10.4980   -1.5430    1.4020 hc        1 MOL     -0.004300
     31 H11         9.8020   -3.0840    1.7450 hc        1 MOL     -0.004300
     32 H12         7.8530   -1.4160    2.8040 hc        1 MOL     -0.029959
     33 H13         9.1080   -0.2270    2.4260 hc        1 MOL     -0.029959
     34 H14         9.7460   -2.4650    4.3250 hc        1 MOL      0.020607
     35 H15         9.0430   -0.9520    4.7490 hc        1 MOL      0.020607
     36 H16        10.9990    0.2920    3.7820 hx        1 MOL      0.079287
     37 H17        11.6980   -1.3840    3.5140 hx        1 MOL      0.079287
     38 H18        10.8490   -0.1270    6.1260 hn        1 MOL      0.185236
     39 H19        11.6310   -1.5660    6.0120 hn        1 MOL      0.185236
     40 H20        12.3890   -0.2000    5.7640 hn        1 MOL      0.185236
     41 N4          6.2920   -2.0220    0.3750 n         1 MOL     -0.294056
     42 C13         4.8680   -2.3370    0.5820 c3        1 MOL     -0.063350
     43 C14         4.3850   -3.1420   -0.5910 c         1 MOL      0.615613
     44 O6          4.6220   -2.6730   -1.7290 o         1 MOL     -0.521143
     45 C15         4.0020   -1.1300    1.0030 c3        1 MOL     -0.144746
     46 C16         2.5840   -1.5240    1.1740 c         1 MOL      0.753001
     47 O7          2.0730   -1.8690    2.2630 o         1 MOL     -0.736325
     48 O8          1.8770   -1.4860    0.1080 o         1 MOL     -0.736325
     49 H21         6.4150   -1.0310    0.2260 hn        1 MOL      0.204156
     50 H22         4.8800   -3.0040    1.4400 h1        1 MOL      0.020293
     51 H23         4.0860   -0.4160    0.1800 hc        1 MOL      0.046273
     52 H24         4.3680   -0.7050    1.9330 hc        1 MOL      0.046273
     53 N5          3.5900   -4.1520   -0.3740 n         1 MOL     -0.362410
     54 C17         3.0240   -5.0650   -1.3630 c3        1 MOL     -0.139439
     55 C18         2.0420   -4.5820   -2.4340 c         1 MOL      0.526786
     56 O9          1.8240   -5.2520   -3.4660 o         1 MOL     -0.539412
     57 H25         3.3670   -4.3110    0.5970 hn        1 MOL      0.281034
     58 H26         2.4680   -5.6980   -0.6790 h1        1 MOL      0.102403
     59 H27         3.8680   -5.6280   -1.7610 h1        1 MOL      0.102403
     60 N6          1.4030   -3.4320   -2.1840 n         1 MOL     -0.175959
     61 C19         0.6570   -2.7600   -3.2480 c3        1 MOL      0.060228
     62 C20         1.1090   -1.3200   -3.4490 c         1 MOL      0.244122
     63 O10         0.2310   -0.5150   -3.9110 o         1 MOL     -0.393120
     64 C21        -0.8370   -3.0290   -2.9830 c3        1 MOL     -0.546391
     65 C22        -1.5190   -2.0620   -2.0170 c         1 MOL      0.600747
     66 N7         -2.8160   -1.9490   -2.2240 n         1 MOL     -0.697599
     67 O11        -0.9630   -1.5870   -1.0550 o         1 MOL     -0.465943
     68 H28         1.7550   -2.8270   -1.4540 hn        1 MOL     -0.001842
     69 H29         0.8750   -3.2170   -4.2100 h1        1 MOL      0.146391
     70 H30        -0.9060   -4.0200   -2.5420 hc        1 MOL      0.188097
     71 H31        -1.4600   -3.0560   -3.8780 hc        1 MOL      0.188097
     72 H32        -3.2240   -2.2990   -3.0840 hn        1 MOL      0.341160
     73 H33        -3.3760   -1.4250   -1.5640 hn        1 MOL      0.341160
     74 N8          2.3710   -0.9930   -3.2520 n         1 MOL     -0.180597
     75 C23         2.8890    0.3390   -3.3990 c3        1 MOL      0.111469
     76 C24         2.4810    1.3980   -2.3880 c         1 MOL      0.577156
     77 O12         2.9160    2.5300   -2.4720 o         1 MOL     -0.506010
     78 H34         3.0430   -1.6920   -2.9700 hn        1 MOL      0.251611
     79 H35         2.6010    0.8280   -4.3380 h1        1 MOL      0.039824
     80 H36         3.9720    0.2750   -3.5310 h1        1 MOL      0.039824
     81 N9          1.7360    1.1240   -1.2850 n         1 MOL     -0.654300
     82 C25         1.2920    2.1030   -0.3250 c3        1 MOL      0.299799
     83 C26        -0.1320    1.7330    0.2560 c         1 MOL      0.319433
     84 O13        -0.4880    0.6160    0.5620 o         1 MOL     -0.571725
     85 C27         2.3460    2.4680    0.7280 c3        1 MOL     -0.262563
     86 C28         1.7720    3.4850    1.7370 ca        1 MOL      0.112809
     87 C29         1.6520    4.8200    1.4020 ca        1 MOL     -0.236636
     88 C30         1.4310    3.0440    3.0460 ca        1 MOL     -0.236636
     89 C31         1.1630    5.7290    2.3090 ca        1 MOL     -0.176207
     90 C32         0.9220    3.9730    3.9510 ca        1 MOL     -0.176207
     91 C33         0.6480    5.3090    3.5530 ca        1 MOL      0.262338
     92 O14         0.1770    6.2680    4.4010 oh        1 MOL     -0.436847
     93 H37         1.5620    0.1600   -1.0910 hn        1 MOL      0.398142
     94 H38         1.2140    3.0250   -0.9010 h1        1 MOL      0.000920
     95 H39         3.2080    2.9530    0.2800 hc        1 MOL      0.129891
     96 H40         2.5910    1.5440    1.2540 hc        1 MOL      0.129891
     97 H41         1.8940    5.2040    0.4210 ha        1 MOL      0.170671
     98 H42         1.6170    2.0110    3.3090 ha        1 MOL      0.170671
     99 H43         0.9070    6.6990    1.9210 ha        1 MOL      0.119506
    100 H44         0.5730    3.6720    4.9290 ha        1 MOL      0.119506
    101 H45         0.0380    5.9320    5.2820 ho        1 MOL      0.353149
    102 N10        -1.0140    2.7640    0.2440 n         1 MOL     -0.098741
    103 C34        -2.4690    2.6100    0.4080 c3        1 MOL     -0.010898
    104 C35        -3.0360    1.7790   -0.7160 c         1 MOL      0.209903
    105 O15        -3.9620    0.9860   -0.6070 o         1 MOL     -0.409818
    106 C36        -3.0730    4.0370    0.5510 c3        1 MOL      0.188385
    107 C37        -2.4110    4.9830    1.6190 c3        1 MOL     -0.432063
    108 C38        -4.6010    3.9730    0.7330 c3        1 MOL     -0.087010
    109 C39        -2.4030    4.3300    3.0370 c3        1 MOL      0.002227
    110 H46        -0.6070    3.6780    0.1270 hn        1 MOL      0.153718
    111 H47        -2.7010    2.1130    1.3560 h1        1 MOL      0.057910
    112 H48        -2.9400    4.5790   -0.3760 hc        1 MOL     -0.033447
    113 H49        -2.9820    5.9100    1.6850 hc        1 MOL      0.174935
    114 H50        -1.3910    5.2240    1.3250 hc        1 MOL      0.174935
    115 H51        -4.9990    4.9700    0.8910 hc        1 MOL      0.033119
    116 H52        -5.0880    3.6020   -0.1700 hc        1 MOL      0.033119
    117 H53        -4.8720    3.1590    1.4010 hc        1 MOL      0.033119
    118 H54        -3.4290    4.0800    3.3030 hc        1 MOL     -0.003318
    119 H55        -1.7780    3.4370    3.0630 hc        1 MOL     -0.003318
    120 H56        -2.0230    5.0760    3.7280 hc        1 MOL     -0.003318
    121 N11        -2.4730    2.0370   -1.8880 n         1 MOL     -0.020496
    122 C40        -2.9450    1.3730   -3.2070 c3        1 MOL     -0.108390
    123 C41        -4.4930    1.3870   -3.3720 c         1 MOL      0.345667
    124 O16        -5.0600    0.4780   -3.9930 o         1 MOL     -0.466834
    125 C42        -2.2960    2.0450   -4.4240 c3        1 MOL      0.174673
    126 O17        -0.9070    2.0220   -4.2850 oh        1 MOL     -0.526253
    127 H57        -1.8240    2.8020   -1.9770 hn        1 MOL      0.150788
    128 H58        -2.5860    0.3520   -3.1730 h1        1 MOL      0.133149
    129 H59        -2.5930    3.0830   -4.5630 h1        1 MOL      0.057429
    130 H60        -2.5280    1.4120   -5.2820 h1        1 MOL      0.057429
    131 H61        -0.6150    1.1550   -3.9890 ho        1 MOL      0.288715
    132 N12        -5.2900    2.3400   -2.8280 n         1 MOL     -0.400949
    133 C43        -6.7960    2.4110   -2.6850 c3        1 MOL      0.460856
    134 C44        -7.5150    1.2550   -1.9840 c         1 MOL      0.382021
    135 O18        -8.6900    0.9620   -2.2810 o         1 MOL     -0.540289
    136 C45        -7.4350    2.7720   -3.9950 c3        1 MOL     -0.476291
    137 H62        -4.8450    3.1380   -2.3950 hn        1 MOL      0.201185
    138 H63        -6.9910    3.2480   -2.0230 h1        1 MOL     -0.031255
    139 H64        -6.8410    3.5950   -4.3960 hc        1 MOL      0.126524
    140 H65        -7.3540    1.8950   -4.6370 hc        1 MOL      0.126524
    141 H66        -8.4630    3.0840   -3.8040 hc        1 MOL      0.126524
    142 N13        -6.7660    0.5280   -1.1500 n         1 MOL     -0.236382
    143 C46        -7.2870   -0.7450   -0.7310 c3        1 MOL     -0.017924
    144 C47        -7.9040   -0.6630    0.6600 c         1 MOL      0.595510
    145 O19        -7.4000    0.0220    1.5660 o         1 MOL     -0.547829
    146 C48        -6.1000   -1.6490   -0.8030 c3        1 MOL     -0.340465
    147 H67        -5.8660    0.9170   -0.8930 hn        1 MOL      0.115517
    148 H68        -7.9750   -1.0310   -1.5280 h1        1 MOL      0.155893
    149 H69        -6.2940   -2.6090   -0.3190 hc        1 MOL      0.093571
    150 H70        -5.8780   -1.6810   -1.8710 hc        1 MOL      0.093571
    151 H71        -5.2540   -1.2210   -0.2670 hc        1 MOL      0.093571
    152 N14        -9.1470   -1.2430    0.7460 n         1 MOL     -0.395122
    153 C49       -10.0480   -1.1530    1.8550 c3        1 MOL      0.109802
    154 C50       -10.3460    0.3140    2.2550 c         1 MOL      0.487591
    155 O20       -10.4160    0.6560    3.4520 o         1 MOL     -0.538941
    156 C51        -9.6280   -2.1760    2.9500 c3        1 MOL     -0.085170
    157 C52        -9.1760   -3.6280    2.5970 c3        1 MOL      0.065142
    158 C53       -10.2730   -4.4490    1.9560 c         1 MOL      0.598998
    159 O21       -10.7670   -4.0600    0.7840 o         1 MOL     -0.640587
    160 O22       -10.5320   -5.5730    2.4230 o         1 MOL     -0.640587
    161 H72        -9.5420   -1.7470   -0.0290 hn        1 MOL      0.202264
    162 H73       -10.9760   -1.5900    1.4940 h1        1 MOL      0.030846
    163 H74       -10.4460   -2.1320    3.6680 hc        1 MOL      0.016028
    164 H75        -8.7530   -1.7090    3.4120 hc        1 MOL      0.016028
    165 H76        -8.7710   -4.0660    3.5080 hc        1 MOL     -0.044645
    166 H77        -8.3100   -3.5900    1.9380 hc        1 MOL     -0.044645
    167 N15       -10.6160    1.1740    1.3000 n         1 MOL     -0.400797
    168 C54       -10.4610    2.6180    1.3850 c3        1 MOL      0.064336
    169 H78       -11.3820    3.1010    1.0590 h1        1 MOL      0.034021
    170 H79       -10.2490    2.9010    2.4170 h1        1 MOL      0.034021
    171 H80        -9.6380    2.9330    0.7450 h1        1 MOL      0.034021
    172 H81       -10.6480    0.7750    0.3670 hn        1 MOL      0.263193
    173 Ca1        -0.5080   -1.9120    1.6440 Ca        1 MOL      1.794245
    174 O23         0.5130   -4.4820    1.1280 oh        1 MOL     -0.871647
    175 O24        -2.9490   -0.9730    1.0840 oh        1 MOL     -0.871647
    176 H82         0.0090   -5.0920    0.5920 ho        1 MOL      0.432574
    177 H83        -3.5140   -1.3080    1.7800 ho        1 MOL      0.432574
    178 H84         1.1570   -5.0310    1.5670 ho        1 MOL      0.432574
    179 H85        -3.3010   -0.1120    0.8860 ho        1 MOL      0.432574
    180 O25        -0.5880   -0.0430    3.5600 oh        1 MOL     -0.871647
    181 H86        -0.0160    0.3720    4.2140 ho        1 MOL      0.432574
    182 H87        -1.4650    0.2430    3.8010 ho        1 MOL      0.432574
    183 O26        -2.3880   -3.6980    0.9260 oh        1 MOL     -0.871647
    184 H88        -3.1360   -3.5820    0.3490 ho        1 MOL      0.432574
    185 H89        -2.4920   -4.5850    1.2800 ho        1 MOL      0.432574
    186 O27        -0.9370   -3.6130    3.6930 oh        1 MOL     -0.871647
    187 H90        -1.3820   -4.4550    3.5610 ho        1 MOL      0.432574
    188 H91        -0.4930   -3.7060    4.5340 ho        1 MOL      0.432574
@<TRIPOS>BOND
     1    1    2 1   
     2    1    4 1   
     3    1    5 1   
     4    1    6 1   
     5    2    3 2   
     6    2    7 1   
     7    7    8 1   
     8    7   15 1   
     9    8    9 1   
    10    8   11 1   
    11    8   16 1   
    12    9   10 2   
    13    9   19 1   
    14   11   12 1   
    15   11   17 1   
    16   11   18 1   
    17   12   13 1   
    18   12   14 1   
    19   19   20 1   
    20   19   28 1   
    21   20   21 1   
    22   20   23 1   
    23   20   29 1   
    24   21   22 2   
    25   21   41 1   
    26   23   24 1   
    27   23   30 1   
    28   23   31 1   
    29   24   25 1   
    30   24   32 1   
    31   24   33 1   
    32   25   26 1   
    33   25   34 1   
    34   25   35 1   
    35   26   27 1   
    36   26   36 1   
    37   26   37 1   
    38   27   38 1   
    39   27   39 1   
    40   27   40 1   
    41   41   42 1   
    42   41   49 1   
    43   42   43 1   
    44   42   45 1   
    45   42   50 1   
    46   43   44 2   
    47   43   53 1   
    48   45   46 1   
    49   45   51 1   
    50   45   52 1   
    51   46   47 1   
    52   46   48 1   
    53   53   54 1   
    54   53   57 1   
    55   54   55 1   
    56   54   58 1   
    57   54   59 1   
    58   55   56 2   
    59   55   60 1   
    60   60   61 1   
    61   60   68 1   
    62   61   62 1   
    63   61   64 1   
    64   61   69 1   
    65   62   63 2   
    66   62   74 1   
    67   64   65 1   
    68   64   70 1   
    69   64   71 1   
    70   65   66 1   
    71   65   67 2   
    72   66   72 1   
    73   66   73 1   
    74   74   75 1   
    75   74   78 1   
    76   75   76 1   
    77   75   79 1   
    78   75   80 1   
    79   76   77 2   
    80   76   81 1   
    81   81   82 1   
    82   81   93 1   
    83   82   83 1   
    84   82   85 1   
    85   82   94 1   
    86   83   84 2   
    87   83  102 1   
    88   85   86 1   
    89   85   95 1   
    90   85   96 1   
    91   86   87 ar  
    92   86   88 ar  
    93   87   89 ar  
    94   87   97 1   
    95   88   90 ar  
    96   88   98 1   
    97   89   91 ar  
    98   89   99 1   
    99   90   91 ar  
   100   90  100 1   
   101   91   92 1   
   102   92  101 1   
   103  102  103 1   
   104  102  110 1   
   105  103  104 1   
   106  103  106 1   
   107  103  111 1   
   108  104  105 2   
   109  104  121 1   
   110  106  107 1   
   111  106  108 1   
   112  106  112 1   
   113  107  109 1   
   114  107  113 1   
   115  107  114 1   
   116  108  115 1   
   117  108  116 1   
   118  108  117 1   
   119  109  118 1   
   120  109  119 1   
   121  109  120 1   
   122  121  122 1   
   123  121  127 1   
   124  122  123 1   
   125  122  125 1   
   126  122  128 1   
   127  123  124 2   
   128  123  132 1   
   129  125  126 1   
   130  125  129 1   
   131  125  130 1   
   132  126  131 1   
   133  132  133 1   
   134  132  137 1   
   135  133  134 1   
   136  133  136 1   
   137  133  138 1   
   138  134  135 2   
   139  134  142 1   
   140  136  139 1   
   141  136  140 1   
   142  136  141 1   
   143  142  143 1   
   144  142  147 1   
   145  143  144 1   
   146  143  146 1   
   147  143  148 1   
   148  144  145 2   
   149  144  152 1   
   150  146  149 1   
   151  146  150 1   
   152  146  151 1   
   153  152  153 1   
   154  152  161 1   
   155  153  154 1   
   156  153  156 1   
   157  153  162 1   
   158  154  155 2   
   159  154  167 1   
   160  156  157 1   
   161  156  163 1   
   162  156  164 1   
   163  157  158 1   
   164  157  165 1   
   165  157  166 1   
   166  158  159 1   
   167  158  160 1   
   168  167  168 1   
   169  167  172 1   
   170  168  169 1   
   171  168  170 1   
   172  168  171 1   
   173  174  176 1   
   174  174  178 1   
   175  175  177 1   
   176  175  179 1   
   177  180  181 1   
   178  180  182 1   
   179  183  184 1   
   180  183  185 1   
   181  186  187 1   
   182  186  188 1   
@<TRIPOS>SUBSTRUCTURE
     1 MOL         1 TEMP              0 ****  ****    0 ROOT
