@<TRIPOS>MOLECULE
MOL
  192   187     1     0     0
SMALL
resp


@<TRIPOS>ATOM
      1 C1          4.7890   -6.2280   -1.6660 c3        1 MOL     -0.165101
      2 C2          4.5590   -4.7890   -1.2210 c         1 MOL      0.749822
      3 O1          4.2480   -4.5040    0.0050 o         1 MOL     -0.642809
      4 H1          5.6380   -6.6440   -1.1240 hc        1 MOL      0.042718
      5 H2          3.8990   -6.8200   -1.4570 hc        1 MOL      0.042718
      6 H3          4.9970   -6.2500   -2.7370 hc        1 MOL      0.042718
      7 N1          4.6890   -3.8330   -2.0880 n         1 MOL     -0.639906
      8 C3          4.5500   -2.3930   -1.8130 c3        1 MOL      0.243192
      9 C4          3.0560   -2.0460   -1.5480 c         1 MOL      0.047603
     10 O2          2.7650   -0.8930   -1.1620 o         1 MOL     -0.070096
     11 C5          5.1150   -1.4980   -2.9290 c3        1 MOL     -0.374931
     12 C6          4.7070   -1.9080   -4.3730 c         1 MOL      0.742941
     13 O3          5.1710   -2.9830   -4.7960 o         1 MOL     -0.701051
     14 O4          4.0760   -1.0830   -5.1260 o         1 MOL     -0.701051
     15 H4          5.0000   -4.1050   -3.0010 hn        1 MOL      0.364349
     16 H5          5.0360   -2.1010   -0.8740 h1        1 MOL      0.083012
     17 H6          6.2010   -1.5780   -2.9230 hc        1 MOL      0.131799
     18 H7          4.8270   -0.4910   -2.6230 hc        1 MOL      0.131799
     19 N2          2.0900   -2.9650   -1.7240 n         1 MOL     -0.166743
     20 C7          0.6530   -2.7840   -1.5170 c3        1 MOL     -0.088301
     21 C8          0.1810   -3.4620   -0.2220 c         1 MOL      0.512628
     22 O5          0.3910   -4.5880   -0.0120 o         1 MOL     -0.520651
     23 C9         -0.0670   -3.3920   -2.7120 c3        1 MOL     -0.066484
     24 C10        -0.1970   -2.6230   -3.9970 c3        1 MOL     -0.203650
     25 C11         1.0570   -2.2330   -4.6960 c3        1 MOL      0.098332
     26 C12         0.6990   -1.4500   -5.9300 c3        1 MOL      0.149722
     27 N3          1.8380   -1.0980   -6.8000 n4        1 MOL     -0.499867
     28 H8          2.2610   -3.9330   -1.9460 hn        1 MOL      0.247514
     29 H9          0.3790   -1.7320   -1.6180 h1        1 MOL      0.023270
     30 H10        -1.0830   -3.4520   -2.3130 hc        1 MOL      0.079261
     31 H11         0.2310   -4.3960   -3.0070 hc        1 MOL      0.079261
     32 H12        -0.7180   -1.6670   -3.9020 hc        1 MOL      0.063365
     33 H13        -0.8500   -3.2230   -4.6340 hc        1 MOL      0.063365
     34 H14         1.6630   -3.0780   -5.0150 hc        1 MOL      0.001171
     35 H15         1.6650   -1.6430   -3.9970 hc        1 MOL      0.001171
     36 H16         0.0950   -0.5620   -5.7280 hx        1 MOL      0.036849
     37 H17         0.0990   -2.1080   -6.5550 hx        1 MOL      0.036849
     38 H18         2.0610   -1.9790   -7.2270 hn        1 MOL      0.339836
     39 H19         1.5320   -0.3470   -7.3970 hn        1 MOL      0.339836
     40 H20         2.6160   -0.8070   -6.2250 hn        1 MOL      0.339836
     41 N4         -0.4100   -2.7370    0.7030 n         1 MOL     -0.188212
     42 C13        -0.8810   -1.3510    0.7040 c3        1 MOL     -0.020957
     43 C14        -1.5600   -0.9070   -0.6240 c         1 MOL      0.135464
     44 O6         -1.0440    0.0000   -1.2470 o         1 MOL     -0.358991
     45 C15         0.2390   -0.4420    1.3280 c3        1 MOL     -0.271750
     46 C16         0.4730   -0.4010    2.8350 c         1 MOL      0.516492
     47 O7          0.3970   -1.5040    3.4920 o         1 MOL     -0.693498
     48 O8          0.9280    0.6020    3.3990 o         1 MOL     -0.693498
     49 H21        -0.6680   -3.2530    1.5360 hn        1 MOL      0.221970
     50 H22        -1.7130   -1.3120    1.3950 h1        1 MOL      0.048014
     51 H23         0.0360    0.5480    0.8940 hc        1 MOL      0.126665
     52 H24         1.1640   -0.7350    0.8360 hc        1 MOL      0.126665
     53 N5         -2.6640   -1.4590   -1.0740 n         1 MOL     -0.222005
     54 C17        -3.3680   -2.5830   -0.4970 c3        1 MOL      0.193074
     55 C18        -4.0130   -3.5990   -1.5270 c         1 MOL      0.386555
     56 O9         -3.4650   -3.7520   -2.6630 o         1 MOL     -0.523040
     57 H25        -3.1700   -0.9560   -1.7810 hn        1 MOL      0.295485
     58 H26        -4.1340   -2.1220    0.1170 h1        1 MOL     -0.014420
     59 H27        -2.7080   -3.2040    0.1180 h1        1 MOL     -0.014420
     60 N6         -5.0230   -4.4350   -1.1510 n         1 MOL     -0.319971
     61 C19        -5.8330   -4.4130    0.0570 c3        1 MOL     -0.075596
     62 C20        -6.5790   -3.0700    0.4280 c         1 MOL      0.551874
     63 O10        -7.0050   -2.3840   -0.5190 o         1 MOL     -0.449862
     64 C21        -6.8960   -5.5930    0.0440 c3        1 MOL     -0.063517
     65 C22        -7.8230   -5.5420   -1.0720 c         1 MOL      0.687154
     66 O11        -7.3330   -5.4210   -2.2390 o         1 MOL     -0.671321
     67 O12        -9.0430   -5.7440   -0.8600 o         1 MOL     -0.671321
     68 H28        -5.3620   -5.0640   -1.8750 hn        1 MOL      0.280148
     69 H29        -5.0980   -4.6700    0.8220 h1        1 MOL      0.002636
     70 H30        -7.3790   -5.5980    1.0150 hc        1 MOL      0.013827
     71 H31        -6.3740   -6.5420   -0.0430 hc        1 MOL      0.013827
     72 N7         -6.6940   -2.7830    1.7060 n         1 MOL     -0.307370
     73 C23        -7.5790   -1.7720    2.2080 c3        1 MOL     -0.383593
     74 C24        -7.0600   -0.3810    1.9150 c         1 MOL      0.500822
     75 O13        -7.9030    0.4480    1.7880 o         1 MOL     -0.517668
     76 H32        -6.3710   -3.4490    2.3890 hn        1 MOL      0.249481
     77 H33        -7.7220   -1.7970    3.2930 h1        1 MOL      0.188263
     78 H34        -8.5680   -1.7940    1.7460 h1        1 MOL      0.188263
     79 N8         -5.7500   -0.2220    1.8610 n         1 MOL     -0.272958
     80 C25        -5.1880    1.1230    1.7460 c3        1 MOL     -0.031231
     81 C26        -5.1770    1.5760    0.2770 c         1 MOL      0.555293
     82 O14        -4.9600    0.7440   -0.6300 o         1 MOL     -0.490974
     83 C27        -3.7440    1.0720    2.2870 c3        1 MOL      0.442656
     84 C28        -3.6420    0.9270    3.8050 c3        1 MOL     -0.176093
     85 O15        -3.1060    2.3660    2.1880 oh        1 MOL     -0.682175
     86 H35        -5.2500   -1.0870    1.9750 hn        1 MOL      0.154086
     87 H36        -5.8350    1.7650    2.3530 h1        1 MOL      0.059719
     88 H37        -3.1910    0.2750    1.7890 h1        1 MOL      0.080275
     89 H38        -2.2070    2.5020    2.5150 ho        1 MOL      0.443662
     90 H39        -4.1600    0.0200    4.0950 hc        1 MOL      0.014108
     91 H40        -2.6270    0.7750    4.1800 hc        1 MOL      0.014108
     92 H41        -4.1050    1.8080    4.2580 hc        1 MOL      0.014108
     93 N9         -5.3400    2.8910    0.0620 n         1 MOL     -0.486763
     94 C29        -5.1630    3.5430   -1.2580 c3        1 MOL     -0.000048
     95 C30        -3.7480    4.0940   -1.5080 c         1 MOL      0.325314
     96 O16        -3.5530    4.6190   -2.6140 o         1 MOL     -0.550448
     97 C31        -6.2520    4.6590   -1.5660 c3        1 MOL      0.117271
     98 C32        -6.4740    5.6940   -0.4340 c3        1 MOL      0.031498
     99 C33        -7.6570    4.0750   -1.6650 c3        1 MOL     -0.109751
    100 C34        -5.1940    6.4090   -0.1190 c3        1 MOL     -0.070009
    101 H42        -5.4700    3.4330    0.9100 hn        1 MOL      0.338698
    102 H43        -5.3480    2.8070   -2.0440 h1        1 MOL      0.137478
    103 H44        -6.1000    5.1200   -2.5350 hc        1 MOL      0.033740
    104 H45        -6.7980    5.2130    0.4930 hc        1 MOL     -0.011613
    105 H46        -7.1480    6.4880   -0.7640 hc        1 MOL     -0.011613
    106 H47        -7.7440    3.3590   -2.4880 hc        1 MOL      0.024900
    107 H48        -7.9000    3.6290   -0.6980 hc        1 MOL      0.024900
    108 H49        -8.4440    4.8030   -1.8360 hc        1 MOL      0.024900
    109 H50        -4.7670    6.8580   -1.0220 hc        1 MOL      0.018830
    110 H51        -5.3850    7.2050    0.6010 hc        1 MOL      0.018830
    111 H52        -4.4260    5.7540    0.2740 hc        1 MOL      0.018830
    112 N10        -2.8080    4.1680   -0.6080 n         1 MOL     -0.000329
    113 C35        -1.4220    4.8060   -0.8180 c3        1 MOL     -0.157855
    114 C36        -0.3290    3.8410   -0.6070 c         1 MOL      0.527055
    115 O17         0.0390    3.5670    0.5560 o         1 MOL     -0.487317
    116 C37        -1.3340    5.9500    0.2280 c3        1 MOL      0.332884
    117 C38        -1.8000    5.7590    1.7030 c3        1 MOL     -0.165489
    118 O18        -1.9060    7.1520   -0.2460 oh        1 MOL     -0.627288
    119 H53        -3.1400    3.8680    0.3010 hn        1 MOL      0.016515
    120 H54        -1.3360    5.2190   -1.8190 h1        1 MOL      0.099431
    121 H55        -0.2690    6.1290    0.3460 h1        1 MOL     -0.002722
    122 H56        -1.6170    7.2710   -1.1550 ho        1 MOL      0.384291
    123 H57        -1.9730    6.7320    2.1570 hc        1 MOL      0.054615
    124 H58        -2.7440    5.2300    1.8010 hc        1 MOL      0.054615
    125 H59        -1.0040    5.2430    2.2400 hc        1 MOL      0.054615
    126 N11         0.1630    3.2960   -1.7260 n         1 MOL     -0.493511
    127 C39         1.1920    2.2780   -1.8530 c3        1 MOL     -0.148236
    128 C40         2.5840    2.8400   -1.4400 c         1 MOL      0.527327
    129 O19         2.8550    4.0170   -1.5150 o         1 MOL     -0.565926
    130 C41         1.1030    1.6020   -3.2000 c3        1 MOL      0.530727
    131 C42         1.4070    2.5860   -4.2910 c3        1 MOL     -0.683600
    132 O20        -0.1660    0.9930   -3.4070 oh        1 MOL     -0.597506
    133 H60        -0.0600    3.7430   -2.5950 hn        1 MOL      0.325326
    134 H61         0.9850    1.4590   -1.1520 h1        1 MOL      0.094741
    135 H62         1.8510    0.8080   -3.1390 h1        1 MOL     -0.040342
    136 H63        -0.3720    0.3960   -2.6810 ho        1 MOL      0.349728
    137 H64         0.5540    3.2300   -4.5060 hc        1 MOL      0.175367
    138 H65         2.1970    3.3050   -4.0640 hc        1 MOL      0.175367
    139 H66         1.6930    1.9960   -5.1580 hc        1 MOL      0.175367
    140 N12         3.4260    1.9680   -0.9850 n         1 MOL     -0.252102
    141 C43         4.7160    2.3420   -0.3380 c3        1 MOL      0.055492
    142 C44         5.0380    1.5450    0.9600 c         1 MOL      0.429144
    143 O21         5.5930    2.1120    1.8790 o         1 MOL     -0.593217
    144 C45         5.8080    2.2720   -1.4670 c3        1 MOL     -0.043217
    145 C46         7.0620    3.2490   -1.2150 c3        1 MOL      0.033507
    146 C47         6.6850    4.7400   -1.0900 c3        1 MOL     -0.051794
    147 C48         5.8430    5.2780   -2.2570 c3        1 MOL      0.142124
    148 N13         5.3060    6.6140   -1.9410 n4        1 MOL     -0.517101
    149 H67         3.2150    0.9970   -1.1650 hn        1 MOL      0.013796
    150 H68         4.5480    3.3650   -0.0070 h1        1 MOL      0.097577
    151 H69         5.3590    2.4940   -2.4350 hc        1 MOL      0.010503
    152 H70         6.1210    1.2320   -1.5900 hc        1 MOL      0.010503
    153 H71         7.7680    3.1010   -2.0380 hc        1 MOL      0.022029
    154 H72         7.5530    2.9810   -0.2810 hc        1 MOL      0.022029
    155 H73         7.6310    5.2850   -1.0260 hc        1 MOL      0.032498
    156 H74         6.1280    4.9510   -0.1810 hc        1 MOL      0.032498
    157 H75         4.9980    4.6540   -2.5350 hx        1 MOL      0.046571
    158 H76         6.5180    5.3880   -3.1140 hx        1 MOL      0.046571
    159 H77         5.0140    6.6600   -0.9780 hn        1 MOL      0.349268
    160 H78         5.9060    7.3750   -2.1950 hn        1 MOL      0.349268
    161 H79         4.5440    6.7850   -2.5910 hn        1 MOL      0.349268
    162 N14         4.7020    0.2760    1.0340 n         1 MOL     -0.021441
    163 C49         5.1070   -0.6750    2.0620 c3        1 MOL     -0.004504
    164 C50         6.5160   -1.2000    1.7250 c         1 MOL      0.275070
    165 O22         6.7640   -1.8330    0.6570 o         1 MOL     -0.448913
    166 C51         3.8940   -1.5750    2.2830 c3        1 MOL     -0.074951
    167 C52         4.0960   -2.7190    3.3380 c3        1 MOL     -0.481331
    168 C53         4.6820   -2.1300    4.6700 c         1 MOL      0.536981
    169 O23         3.9710   -1.2530    5.2630 o         1 MOL     -0.656120
    170 O24         5.8470   -2.3590    5.0730 o         1 MOL     -0.656120
    171 H80         4.3460   -0.1520    0.1920 hn        1 MOL     -0.020236
    172 H81         5.1900   -0.0350    2.9410 h1        1 MOL      0.096208
    173 H82         3.7960   -2.0560    1.3040 hc        1 MOL      0.078053
    174 H83         3.0080   -0.9550    2.4360 hc        1 MOL      0.078053
    175 H84         4.8610   -3.3920    2.9380 hc        1 MOL      0.194328
    176 H85         3.1690   -3.2710    3.4870 hc        1 MOL      0.194328
    177 N15         7.4610   -1.2100    2.7470 n         1 MOL     -0.165199
    178 C54         8.8630   -1.6960    2.5430 c3        1 MOL     -0.040829
    179 H86         9.1980   -2.2240    3.4360 h1        1 MOL      0.055946
    180 H87         8.8920   -2.3740    1.6890 h1        1 MOL      0.055946
    181 H88         9.5200   -0.8470    2.3560 h1        1 MOL      0.055946
    182 H89         7.2290   -0.7660    3.6150 hn        1 MOL      0.273809
    183 Ca1         1.5300   -0.6480    5.6270 Ca        1 MOL      1.687584
    184 O25         2.9970    1.5690    5.7640 oh        1 MOL     -0.858258
    185 H90         2.6150    2.4290    5.9260 ho        1 MOL      0.434934
    186 H91         3.8700    1.7590    5.4110 ho        1 MOL      0.434934
    187 O26        -0.8420   -1.5480    6.5520 oh        1 MOL     -0.858258
    188 H92        -1.3450   -2.3260    6.3370 ho        1 MOL      0.434934
    189 H93        -1.4990   -0.8880    6.7750 ho        1 MOL      0.434934
    190 O27         0.0000    1.3610    6.8490 oh        1 MOL     -0.858258
    191 H94        -0.0070    1.8690    7.6590 ho        1 MOL      0.434934
    192 H95        -0.9050    1.0850    6.7230 ho        1 MOL      0.434934
@<TRIPOS>BOND
     1    1    2 1   
     2    1    4 1   
     3    1    5 1   
     4    1    6 1   
     5    2    3 2   
     6    2    7 1   
     7    7    8 1   
     8    7   15 1   
     9    8    9 1   
    10    8   11 1   
    11    8   16 1   
    12    9   10 2   
    13    9   19 1   
    14   11   12 1   
    15   11   17 1   
    16   11   18 1   
    17   12   13 1   
    18   12   14 1   
    19   19   20 1   
    20   19   28 1   
    21   20   21 1   
    22   20   23 1   
    23   20   29 1   
    24   21   22 2   
    25   21   41 1   
    26   23   24 1   
    27   23   30 1   
    28   23   31 1   
    29   24   25 1   
    30   24   32 1   
    31   24   33 1   
    32   25   26 1   
    33   25   34 1   
    34   25   35 1   
    35   26   27 1   
    36   26   36 1   
    37   26   37 1   
    38   27   38 1   
    39   27   39 1   
    40   27   40 1   
    41   41   42 1   
    42   41   49 1   
    43   42   43 1   
    44   42   45 1   
    45   42   50 1   
    46   43   44 2   
    47   43   53 1   
    48   45   46 1   
    49   45   51 1   
    50   45   52 1   
    51   46   47 1   
    52   46   48 1   
    53   53   54 1   
    54   53   57 1   
    55   54   55 1   
    56   54   58 1   
    57   54   59 1   
    58   55   56 2   
    59   55   60 1   
    60   60   61 1   
    61   60   68 1   
    62   61   62 1   
    63   61   64 1   
    64   61   69 1   
    65   62   63 2   
    66   62   72 1   
    67   64   65 1   
    68   64   70 1   
    69   64   71 1   
    70   65   66 1   
    71   65   67 1   
    72   72   73 1   
    73   72   76 1   
    74   73   74 1   
    75   73   77 1   
    76   73   78 1   
    77   74   75 2   
    78   74   79 1   
    79   79   80 1   
    80   79   86 1   
    81   80   81 1   
    82   80   83 1   
    83   80   87 1   
    84   81   82 2   
    85   81   93 1   
    86   83   84 1   
    87   83   85 1   
    88   83   88 1   
    89   84   90 1   
    90   84   91 1   
    91   84   92 1   
    92   85   89 1   
    93   93   94 1   
    94   93  101 1   
    95   94   95 1   
    96   94   97 1   
    97   94  102 1   
    98   95   96 2   
    99   95  112 1   
   100   97   98 1   
   101   97   99 1   
   102   97  103 1   
   103   98  100 1   
   104   98  104 1   
   105   98  105 1   
   106   99  106 1   
   107   99  107 1   
   108   99  108 1   
   109  100  109 1   
   110  100  110 1   
   111  100  111 1   
   112  112  113 1   
   113  112  119 1   
   114  113  114 1   
   115  113  116 1   
   116  113  120 1   
   117  114  115 2   
   118  114  126 1   
   119  116  117 1   
   120  116  118 1   
   121  116  121 1   
   122  117  123 1   
   123  117  124 1   
   124  117  125 1   
   125  118  122 1   
   126  126  127 1   
   127  126  133 1   
   128  127  128 1   
   129  127  130 1   
   130  127  134 1   
   131  128  129 2   
   132  128  140 1   
   133  130  131 1   
   134  130  132 1   
   135  130  135 1   
   136  131  137 1   
   137  131  138 1   
   138  131  139 1   
   139  132  136 1   
   140  140  141 1   
   141  140  149 1   
   142  141  142 1   
   143  141  144 1   
   144  141  150 1   
   145  142  143 2   
   146  142  162 1   
   147  144  145 1   
   148  144  151 1   
   149  144  152 1   
   150  145  146 1   
   151  145  153 1   
   152  145  154 1   
   153  146  147 1   
   154  146  155 1   
   155  146  156 1   
   156  147  148 1   
   157  147  157 1   
   158  147  158 1   
   159  148  159 1   
   160  148  160 1   
   161  148  161 1   
   162  162  163 1   
   163  162  171 1   
   164  163  164 1   
   165  163  166 1   
   166  163  172 1   
   167  164  165 2   
   168  164  177 1   
   169  166  167 1   
   170  166  173 1   
   171  166  174 1   
   172  167  168 1   
   173  167  175 1   
   174  167  176 1   
   175  168  169 1   
   176  168  170 1   
   177  177  178 1   
   178  177  182 1   
   179  178  179 1   
   180  178  180 1   
   181  178  181 1   
   182  184  185 1   
   183  184  186 1   
   184  187  188 1   
   185  187  189 1   
   186  190  191 1   
   187  190  192 1   
@<TRIPOS>SUBSTRUCTURE
     1 MOL         1 TEMP              0 ****  ****    0 ROOT
