@<TRIPOS>MOLECULE
MOL
  195   189     1     0     0
SMALL
resp


@<TRIPOS>ATOM
      1 C1          0.6960    4.0380    1.8940 c3        1 MOL     -0.406845
      2 C2         -0.5250    3.8630    0.9150 c         1 MOL      0.889296
      3 O1         -1.2990    2.9650    1.1680 o         1 MOL     -0.538486
      4 H1          1.6260    3.9320    1.3360 hc        1 MOL      0.068207
      5 H2          0.6580    5.0260    2.3510 hc        1 MOL      0.068207
      6 H3          0.6510    3.2750    2.6720 hc        1 MOL      0.068207
      7 N1         -0.6270    4.7210   -0.1220 n         1 MOL     -0.784632
      8 C3         -1.7280    4.7100   -1.1750 c3        1 MOL      0.049027
      9 C4         -3.1830    4.4310   -0.6800 c         1 MOL      0.840662
     10 O2         -3.9770    3.7250   -1.2650 o         1 MOL     -0.557758
     11 C5         -1.3760    3.6990   -2.2710 c3        1 MOL     -0.281776
     12 C6          0.1150    3.7490   -2.5920 c         1 MOL      0.710446
     13 O3          0.4780    4.7460   -3.2090 o         1 MOL     -0.650934
     14 O4          0.8750    2.8460   -2.1300 o         1 MOL     -0.650934
     15 H4          0.2020    5.2740   -0.3220 hn        1 MOL      0.394696
     16 H5         -1.7550    5.6860   -1.6620 h1        1 MOL      0.069446
     17 H6         -1.9640    3.9830   -3.1490 hc        1 MOL      0.086805
     18 H7         -1.6290    2.7020   -1.8990 hc        1 MOL      0.086805
     19 N2         -3.6360    5.0410    0.4560 n         1 MOL     -0.775001
     20 C7         -4.8510    4.6080    1.1030 c3        1 MOL     -0.082750
     21 C8         -6.0310    5.1990    0.3670 c         1 MOL      0.545611
     22 O5         -6.0000    6.2560   -0.2700 o         1 MOL     -0.586690
     23 C9         -4.8660    5.0650    2.5860 c3        1 MOL      0.355598
     24 C10        -4.9990    6.5650    2.7590 c3        1 MOL      0.245340
     25 C11        -3.6710    4.4110    3.3230 c3        1 MOL     -0.363526
     26 C12        -5.1580    7.0290    4.1770 c3        1 MOL     -0.265862
     27 H8         -2.9180    5.4480    1.0480 hn        1 MOL      0.330503
     28 H9         -4.9340    3.5250    1.1310 h1        1 MOL      0.113504
     29 H10        -5.7490    4.6550    3.0780 hc        1 MOL     -0.016956
     30 H11        -5.8360    6.8860    2.1450 hc        1 MOL     -0.056134
     31 H12        -4.0680    7.0120    2.4100 hc        1 MOL     -0.056134
     32 H13        -3.5580    3.3760    3.0130 hc        1 MOL      0.073067
     33 H14        -2.7740    5.0180    3.1840 hc        1 MOL      0.073067
     34 H15        -3.8960    4.3020    4.3850 hc        1 MOL      0.073067
     35 H16        -5.6320    8.0080    4.0870 hc        1 MOL      0.028881
     36 H17        -5.8630    6.3440    4.6560 hc        1 MOL      0.028881
     37 H18        -4.2070    7.0350    4.7070 hc        1 MOL      0.028881
     38 N3         -7.2150    4.6020    0.3410 n         1 MOL     -0.545187
     39 C13        -7.7010    3.2180    0.6700 c3        1 MOL      0.002129
     40 C14        -7.9690    2.3470   -0.5320 c         1 MOL      0.605119
     41 O6         -8.6780    1.3080   -0.4200 o         1 MOL     -0.521343
     42 C15        -9.0100    3.4100    1.4630 c3        1 MOL     -0.100993
     43 C16       -10.1490    4.1410    0.7630 c         1 MOL      0.818960
     44 O7         -9.8160    4.7810   -0.2050 o         1 MOL     -0.715501
     45 O8        -11.3550    4.1250    1.1860 o         1 MOL     -0.715501
     46 H19        -7.8980    5.2450   -0.0400 hn        1 MOL      0.347326
     47 H20        -6.9870    2.6920    1.3080 h1        1 MOL      0.067366
     48 H21        -8.7050    4.0200    2.3140 hc        1 MOL     -0.016317
     49 H22        -9.3750    2.4630    1.8660 hc        1 MOL     -0.016317
     50 N4         -7.5880    2.7960   -1.7530 n         1 MOL     -0.312741
     51 C17        -8.1640    2.3560   -3.0550 c3        1 MOL     -0.312222
     52 C18        -7.9720    0.8880   -3.3500 c         1 MOL      0.533768
     53 O9         -8.9060    0.2560   -3.9070 o         1 MOL     -0.569294
     54 H23        -6.7550    3.3500   -1.8080 hn        1 MOL      0.310368
     55 H24        -7.6700    2.8260   -3.8950 h1        1 MOL      0.150899
     56 H25        -9.2280    2.6070   -3.0690 h1        1 MOL      0.150899
     57 N5         -6.7870    0.3120   -2.9750 n         1 MOL     -0.307956
     58 C19        -6.5250   -1.1370   -3.1990 c3        1 MOL      0.039097
     59 C20        -6.9120   -1.9690   -1.9830 c         1 MOL      0.409322
     60 O10        -7.3090   -3.1420   -2.0540 o         1 MOL     -0.572699
     61 C21        -5.0020   -1.2940   -3.5630 c3        1 MOL     -0.219589
     62 C22        -3.9980   -0.6620   -2.5430 c         1 MOL      0.836872
     63 O11        -3.0560    0.0620   -2.8760 o         1 MOL     -0.650427
     64 O12        -4.1620   -0.9170   -1.3140 o         1 MOL     -0.650427
     65 H26        -6.1520    0.8540   -2.4000 hn        1 MOL      0.199331
     66 H27        -7.1450   -1.4930   -4.0180 h1        1 MOL      0.102952
     67 H28        -4.8660   -0.7700   -4.5050 hc        1 MOL      0.020225
     68 H29        -4.7200   -2.3470   -3.6020 hc        1 MOL      0.020225
     69 N6         -7.0420   -1.4500   -0.7730 n         1 MOL     -0.009110
     70 C23        -7.3530   -2.2650    0.4220 c3        1 MOL     -0.236243
     71 C24        -6.3110   -3.3500    0.7740 c         1 MOL      0.524686
     72 O13        -6.4550   -4.0170    1.8050 o         1 MOL     -0.593489
     73 H30        -7.0030   -0.4440   -0.7030 hn        1 MOL      0.098756
     74 H31        -8.3550   -2.6920    0.4400 h1        1 MOL      0.107323
     75 H32        -7.2830   -1.5590    1.2470 h1        1 MOL      0.107323
     76 N7         -5.3080   -3.5830   -0.0760 n         1 MOL     -0.099952
     77 C25        -4.2710   -4.6150    0.0150 c3        1 MOL      0.065262
     78 C26        -3.7520   -4.8970    1.3830 c         1 MOL      0.440402
     79 O14        -3.4680   -6.0730    1.6800 o         1 MOL     -0.573099
     80 C27        -4.6820   -5.9390   -0.6740 c3        1 MOL      0.170343
     81 C28        -5.4520   -5.7430   -2.0570 c3        1 MOL     -0.355946
     82 C29        -5.6740   -7.0320   -2.7700 c         1 MOL      0.763685
     83 N8         -6.1210   -6.9340   -4.0070 n         1 MOL     -0.822457
     84 O15        -5.3800   -8.0900   -2.3210 o         1 MOL     -0.603415
     85 H33        -5.2870   -2.8990   -0.8190 hn        1 MOL      0.079107
     86 H34        -3.4920   -4.1840   -0.6000 h1        1 MOL      0.050839
     87 H35        -5.2570   -6.5040    0.0670 hc        1 MOL     -0.017961
     88 H36        -3.7840   -6.5340   -0.8740 hc        1 MOL     -0.017961
     89 H37        -4.8300   -5.0270   -2.5890 hc        1 MOL      0.100452
     90 H38        -6.4440   -5.4000   -1.7740 hc        1 MOL      0.100452
     91 H39        -6.5350   -6.0560   -4.2760 hn        1 MOL      0.344931
     92 H40        -6.1290   -7.7940   -4.5300 hn        1 MOL      0.344931
     93 N9         -3.5650   -3.9380    2.3110 n         1 MOL     -0.074527
     94 C30        -3.1220   -4.2140    3.7100 c3        1 MOL     -0.221156
     95 C31        -1.6090   -4.3300    3.8470 c         1 MOL      0.435863
     96 O16        -1.1000   -4.5530    4.9590 o         1 MOL     -0.563483
     97 C32        -3.6010   -3.2210    4.6920 c3        1 MOL      0.429158
     98 C33        -3.4720   -1.8220    4.1540 c3        1 MOL     -0.321106
     99 C34        -5.0260   -3.5380    5.1100 c3        1 MOL     -0.321106
    100 H41        -3.7050   -2.9850    1.9950 hn        1 MOL      0.101517
    101 H42        -3.6090   -5.1520    3.9670 h1        1 MOL      0.132246
    102 H43        -2.9930   -3.3040    5.5980 hc        1 MOL     -0.051173
    103 H44        -2.4530   -1.5930    3.8590 hc        1 MOL      0.064482
    104 H45        -4.1880   -1.7020    3.3450 hc        1 MOL      0.064482
    105 H46        -3.8040   -1.1810    4.9730 hc        1 MOL      0.064482
    106 H47        -5.6610   -3.5440    4.2170 hc        1 MOL      0.064482
    107 H48        -5.0470   -4.5240    5.5790 hc        1 MOL      0.064482
    108 H49        -5.4410   -2.7690    5.7620 hc        1 MOL      0.064482
    109 N10        -0.8590   -3.9920    2.7810 n         1 MOL     -0.166445
    110 C35         0.5660   -3.7560    2.8400 c3        1 MOL      0.038685
    111 C36         1.2520   -3.8680    1.4130 c         1 MOL      0.393030
    112 O17         0.4920   -4.1060    0.4200 o         1 MOL     -0.452634
    113 C37         0.7360   -2.2980    3.3850 c3        1 MOL     -0.105730
    114 C38         0.4510   -1.3200    2.2640 c         1 MOL      0.587139
    115 N11         1.3040   -0.4050    2.0540 n         1 MOL     -0.718345
    116 O18        -0.6020   -1.3100    1.5600 o         1 MOL     -0.495336
    117 H50        -1.2960   -3.9610    1.8700 hn        1 MOL      0.134413
    118 H51         1.0580   -4.4330    3.5470 h1        1 MOL      0.066699
    119 H52         1.7640   -2.1360    3.7000 hc        1 MOL      0.026058
    120 H53         0.0530   -2.2010    4.2270 hc        1 MOL      0.026058
    121 H54         2.2210   -0.3720    2.4700 hn        1 MOL      0.347996
    122 H55         1.0660    0.0660    1.1810 hn        1 MOL      0.347996
    123 N12         2.5580   -3.6160    1.3210 n         1 MOL     -0.366178
    124 C39         3.3710   -3.4070    0.0960 c3        1 MOL     -0.042597
    125 C40         4.8850   -3.4030    0.4130 c         1 MOL      0.557176
    126 O19         5.3930   -3.1230    1.5190 o         1 MOL     -0.598678
    127 C41         2.8740   -2.0960   -0.6010 c3        1 MOL     -0.137638
    128 C42         3.6830   -1.7010   -1.7630 ca        1 MOL     -0.110094
    129 C43         3.3820   -2.1210   -3.0780 ca        1 MOL     -0.056987
    130 C44         4.6130   -0.6280   -1.5370 ca        1 MOL     -0.056987
    131 C45         4.2810   -1.7630   -4.1100 ca        1 MOL     -0.296827
    132 C46         5.4940   -0.2590   -2.5650 ca        1 MOL     -0.296827
    133 C47         5.3150   -0.8600   -3.8170 ca        1 MOL      0.429301
    134 O20         6.0880   -0.4510   -4.9180 oh        1 MOL     -0.569427
    135 H56         3.0360   -3.4860    2.1950 hn        1 MOL      0.262900
    136 H57         3.1120   -4.2230   -0.5820 h1        1 MOL      0.078709
    137 H58         2.8150   -1.3560    0.1970 hc        1 MOL      0.126308
    138 H59         1.9000   -2.2840   -1.0450 hc        1 MOL      0.126308
    139 H60         2.5490   -2.7940   -3.2030 ha        1 MOL      0.126744
    140 H61         4.5590   -0.0890   -0.5970 ha        1 MOL      0.126744
    141 H62         4.0000   -2.0950   -5.0960 ha        1 MOL      0.134276
    142 H63         6.1730    0.5700   -2.4380 ha        1 MOL      0.134276
    143 H64         5.9150   -0.9420   -5.7270 ho        1 MOL      0.390628
    144 N13         5.6730   -3.6500   -0.6540 n         1 MOL     -0.267440
    145 C48         7.1530   -3.5980   -0.7260 c3        1 MOL      0.092011
    146 C49         7.7350   -2.4310   -1.5810 c         1 MOL      0.470783
    147 O21         8.0870   -2.7060   -2.7240 o         1 MOL     -0.562250
    148 C50         7.6080   -5.0370   -0.9530 c3        1 MOL      0.289305
    149 C51         7.2730   -5.9260    0.1950 c3        1 MOL     -0.205945
    150 C52         7.8130   -7.3290   -0.1720 c         1 MOL      0.620216
    151 O22         8.8950   -7.7770    0.2960 o         1 MOL     -0.644394
    152 O23         7.1470   -8.0010   -1.0500 o         1 MOL     -0.644394
    153 H65         5.2590   -3.8380   -1.5610 hn        1 MOL      0.216735
    154 H66         7.5040   -3.3740    0.2850 h1        1 MOL      0.099900
    155 H67         8.6820   -4.9740   -1.1200 hc        1 MOL     -0.073268
    156 H68         6.9960   -5.3720   -1.7910 hc        1 MOL     -0.073268
    157 H69         6.2030   -5.9040    0.4110 hc        1 MOL      0.013499
    158 H70         7.7870   -5.5040    1.0490 hc        1 MOL      0.013499
    159 N14         8.0320   -1.2000   -1.1320 n         1 MOL     -0.316219
    160 C53         7.6810   -0.6640    0.1780 c3        1 MOL     -0.207636
    161 C54         8.4270   -1.2390    1.4090 c         1 MOL      0.807268
    162 O24         9.2240   -2.1660    1.2940 o         1 MOL     -0.584337
    163 C55         7.7610    0.8100    0.0320 c3        1 MOL      0.392990
    164 C56         9.1360    1.4300    0.3370 c3        1 MOL     -0.938690
    165 C57         9.0130    2.9670    0.2860 c         1 MOL      1.078207
    166 O25         8.7200    3.5550   -0.7690 o         1 MOL     -0.771761
    167 O26         9.0930    3.6240    1.3140 o         1 MOL     -0.771761
    168 H71         8.7010   -0.6880   -1.6950 hn        1 MOL      0.250477
    169 H72         6.6400   -0.8890    0.4020 h1        1 MOL     -0.019142
    170 H73         6.9320    1.2770    0.5660 hc        1 MOL      0.036679
    171 H74         7.5010    1.0440   -1.0060 hc        1 MOL      0.036679
    172 H75        10.0100    1.1320   -0.2400 hc        1 MOL      0.182802
    173 H76         9.3680    1.2420    1.3810 hc        1 MOL      0.182802
    174 N15         7.9860   -0.8190    2.6380 n         1 MOL     -0.295477
    175 C58         8.4410   -1.3150    3.9880 c3        1 MOL     -0.779034
    176 H77         8.0430   -0.6640    4.7670 h1        1 MOL      0.252724
    177 H78         8.0780   -2.3310    4.1440 h1        1 MOL      0.252724
    178 H79         9.5310   -1.3060    4.0300 h1        1 MOL      0.252724
    179 H80         7.3660   -0.0250    2.6640 hn        1 MOL      0.204985
    180 Ca1         8.1370    5.9470    0.2540 Ca        1 MOL      1.528244
    181 O27         9.6130    6.3280   -1.8220 oh        1 MOL     -0.857454
    182 H81        10.4220    6.7110   -2.1760 ho        1 MOL      0.373220
    183 H82         9.1110    6.0750   -2.5930 ho        1 MOL      0.373220
    184 O28         5.9170    4.2840    0.3210 oh        1 MOL     -0.857454
    185 H83         5.0950    3.9980    0.7290 ho        1 MOL      0.373220
    186 H84         6.0750    3.6490   -0.3720 ho        1 MOL      0.373220
    187 O29        10.4660    6.6900    1.3170 oh        1 MOL     -0.857454
    188 H85        11.1470    6.3490    1.9080 ho        1 MOL      0.373220
    189 H86        10.5280    7.6360    1.3930 ho        1 MOL      0.373220
    190 O30         6.3430    6.8800   -1.5280 oh        1 MOL     -0.857454
    191 H87         6.4510    7.3770   -2.3420 ho        1 MOL      0.373220
    192 H88         5.4940    7.1510   -1.1910 ho        1 MOL      0.373220
    193 O31         8.7600    8.5550   -0.2180 oh        1 MOL     -0.857454
    194 H89         8.8590    8.8020   -1.1420 ho        1 MOL      0.373220
    195 H90         9.2950    9.1940    0.2570 ho        1 MOL      0.373220
@<TRIPOS>BOND
     1    1    2 1   
     2    1    4 1   
     3    1    5 1   
     4    1    6 1   
     5    2    3 2   
     6    2    7 1   
     7    7    8 1   
     8    7   15 1   
     9    8    9 1   
    10    8   11 1   
    11    8   16 1   
    12    9   10 2   
    13    9   19 1   
    14   11   12 1   
    15   11   17 1   
    16   11   18 1   
    17   12   13 1   
    18   12   14 1   
    19   19   20 1   
    20   19   27 1   
    21   20   21 1   
    22   20   23 1   
    23   20   28 1   
    24   21   22 2   
    25   21   38 1   
    26   23   24 1   
    27   23   25 1   
    28   23   29 1   
    29   24   26 1   
    30   24   30 1   
    31   24   31 1   
    32   25   32 1   
    33   25   33 1   
    34   25   34 1   
    35   26   35 1   
    36   26   36 1   
    37   26   37 1   
    38   38   39 1   
    39   38   46 1   
    40   39   40 1   
    41   39   42 1   
    42   39   47 1   
    43   40   41 2   
    44   40   50 1   
    45   42   43 1   
    46   42   48 1   
    47   42   49 1   
    48   43   44 1   
    49   43   45 1   
    50   50   51 1   
    51   50   54 1   
    52   51   52 1   
    53   51   55 1   
    54   51   56 1   
    55   52   53 2   
    56   52   57 1   
    57   57   58 1   
    58   57   65 1   
    59   58   59 1   
    60   58   61 1   
    61   58   66 1   
    62   59   60 2   
    63   59   69 1   
    64   61   62 1   
    65   61   67 1   
    66   61   68 1   
    67   62   63 1   
    68   62   64 1   
    69   69   70 1   
    70   69   73 1   
    71   70   71 1   
    72   70   74 1   
    73   70   75 1   
    74   71   72 2   
    75   71   76 1   
    76   76   77 1   
    77   76   85 1   
    78   77   78 1   
    79   77   80 1   
    80   77   86 1   
    81   78   79 2   
    82   78   93 1   
    83   80   81 1   
    84   80   87 1   
    85   80   88 1   
    86   81   82 1   
    87   81   89 1   
    88   81   90 1   
    89   82   83 1   
    90   82   84 2   
    91   83   91 1   
    92   83   92 1   
    93   93   94 1   
    94   93  100 1   
    95   94   95 1   
    96   94   97 1   
    97   94  101 1   
    98   95   96 2   
    99   95  109 1   
   100   97   98 1   
   101   97   99 1   
   102   97  102 1   
   103   98  103 1   
   104   98  104 1   
   105   98  105 1   
   106   99  106 1   
   107   99  107 1   
   108   99  108 1   
   109  109  110 1   
   110  109  117 1   
   111  110  111 1   
   112  110  113 1   
   113  110  118 1   
   114  111  112 2   
   115  111  123 1   
   116  113  114 1   
   117  113  119 1   
   118  113  120 1   
   119  114  115 1   
   120  114  116 2   
   121  115  121 1   
   122  115  122 1   
   123  123  124 1   
   124  123  135 1   
   125  124  125 1   
   126  124  127 1   
   127  124  136 1   
   128  125  126 2   
   129  125  144 1   
   130  127  128 1   
   131  127  137 1   
   132  127  138 1   
   133  128  129 ar  
   134  128  130 ar  
   135  129  131 ar  
   136  129  139 1   
   137  130  132 ar  
   138  130  140 1   
   139  131  133 ar  
   140  131  141 1   
   141  132  133 ar  
   142  132  142 1   
   143  133  134 1   
   144  134  143 1   
   145  144  145 1   
   146  144  153 1   
   147  145  146 1   
   148  145  148 1   
   149  145  154 1   
   150  146  147 2   
   151  146  159 1   
   152  148  149 1   
   153  148  155 1   
   154  148  156 1   
   155  149  150 1   
   156  149  157 1   
   157  149  158 1   
   158  150  151 1   
   159  150  152 1   
   160  159  160 1   
   161  159  168 1   
   162  160  161 1   
   163  160  163 1   
   164  160  169 1   
   165  161  162 2   
   166  161  174 1   
   167  163  164 1   
   168  163  170 1   
   169  163  171 1   
   170  164  165 1   
   171  164  172 1   
   172  164  173 1   
   173  165  166 1   
   174  165  167 1   
   175  174  175 1   
   176  174  179 1   
   177  175  176 1   
   178  175  177 1   
   179  175  178 1   
   180  181  182 1   
   181  181  183 1   
   182  184  185 1   
   183  184  186 1   
   184  187  188 1   
   185  187  189 1   
   186  190  191 1   
   187  190  192 1   
   188  193  194 1   
   189  193  195 1   
@<TRIPOS>SUBSTRUCTURE
     1 MOL         1 TEMP              0 ****  ****    0 ROOT
