@<TRIPOS>MOLECULE
MOL
  175   173     1     0     0
SMALL
resp


@<TRIPOS>ATOM
      1 C1         -6.5360    7.9520    1.3950 c3        1 MOL     -0.343651
      2 C2         -7.5900    7.1370    0.7050 c         1 MOL      0.699407
      3 O1         -7.8840    7.3860   -0.4490 o         1 MOL     -0.596385
      4 H1         -5.6100    7.3780    1.4470 hc        1 MOL      0.075202
      5 H2         -6.3630    8.8720    0.8370 hc        1 MOL      0.075202
      6 H3         -6.8680    8.1960    2.4040 hc        1 MOL      0.075202
      7 N1         -8.1970    6.2100    1.3790 n         1 MOL     -0.483538
      8 C3         -9.1190    5.2700    0.7510 c3        1 MOL      0.119543
      9 C4         -8.5260    4.2530   -0.2160 c         1 MOL      0.531114
     10 O2         -9.2560    3.8040   -1.0990 o         1 MOL     -0.529819
     11 C5        -10.1000    4.6730    1.7640 c3        1 MOL     -0.165035
     12 C6        -11.3530    3.9300    1.1550 c         1 MOL      0.684781
     13 O3        -12.3320    4.6560    0.8140 o         1 MOL     -0.718085
     14 O4        -11.3940    2.6790    1.2440 o         1 MOL     -0.718085
     15 H4         -7.7730    6.0040    2.2760 hn        1 MOL      0.264610
     16 H5         -9.7600    5.8240    0.0650 h1        1 MOL      0.056168
     17 H6        -10.3880    5.5380    2.3690 hc        1 MOL      0.002021
     18 H7         -9.5740    3.9770    2.4190 hc        1 MOL      0.002021
     19 N2         -7.2790    3.8490   -0.0880 n         1 MOL     -0.546892
     20 C7         -6.6310    2.8650   -0.9630 c3        1 MOL      0.340524
     21 C8         -5.3170    2.4350   -0.3370 c         1 MOL      0.518618
     22 O5         -4.9220    3.1020    0.6010 o         1 MOL     -0.535145
     23 C9         -6.1620    3.4600   -2.3030 c3        1 MOL     -0.148170
     24 H8         -6.6780    4.1970    0.6440 hn        1 MOL      0.264218
     25 H9         -7.3340    2.0440   -1.0780 h1        1 MOL      0.024160
     26 H10        -5.7280    4.4660   -2.2740 hc        1 MOL      0.037004
     27 H11        -5.4860    2.8240   -2.8810 hc        1 MOL      0.037004
     28 H12        -7.0690    3.3450   -2.8980 hc        1 MOL      0.037004
     29 N3         -4.7290    1.2520   -0.7210 n         1 MOL     -0.533741
     30 C10        -5.2270    0.2960   -1.7190 c3        1 MOL     -0.049447
     31 C11        -5.3940   -1.1250   -1.1100 c         1 MOL      0.612497
     32 O6         -4.7570   -1.4410   -0.1140 o         1 MOL     -0.540626
     33 C12        -4.1640    0.1950   -2.8340 c3        1 MOL     -0.294597
     34 C13        -2.8540   -0.3550   -2.4040 c         1 MOL      0.820506
     35 O7         -2.5340   -1.4930   -2.6600 o         1 MOL     -0.771812
     36 O8         -1.9620    0.3090   -1.7690 o         1 MOL     -0.771812
     37 H13        -3.8520    1.0690   -0.2680 hn        1 MOL      0.336120
     38 H14        -6.1930    0.6520   -2.0950 h1        1 MOL      0.106385
     39 H15        -3.9200    1.2040   -3.1510 hc        1 MOL      0.080836
     40 H16        -4.5950   -0.3550   -3.6710 hc        1 MOL      0.080836
     41 N4         -6.2810   -1.9670   -1.6370 n         1 MOL     -0.559378
     42 C14        -6.7910   -3.2950   -0.9860 c3        1 MOL      0.123755
     43 C15        -6.5470   -4.6490   -1.7260 c         1 MOL      0.546894
     44 O9         -7.5070   -5.2180   -2.2190 o         1 MOL     -0.547683
     45 H17        -6.7950   -1.5990   -2.4350 hn        1 MOL      0.320147
     46 H18        -7.8500   -3.3620   -0.7500 h1        1 MOL      0.049931
     47 H19        -6.2870   -3.4390   -0.0280 h1        1 MOL      0.049931
     48 N5         -5.3250   -5.2790   -1.6890 n         1 MOL     -0.501132
     49 C16        -4.0310   -4.7890   -1.1400 c3        1 MOL     -0.027921
     50 C17        -3.8890   -5.1870    0.3260 c         1 MOL      0.591465
     51 O10        -3.9290   -6.3860    0.6810 o         1 MOL     -0.561067
     52 C18        -2.8830   -5.4010   -1.9980 c3        1 MOL     -0.089742
     53 C19        -1.6030   -4.6010   -1.8920 c         1 MOL      0.603260
     54 N6         -0.5640   -4.8850   -2.6360 n         1 MOL     -0.652982
     55 O11        -1.4760   -3.7350   -1.0410 o         1 MOL     -0.592282
     56 H20        -5.2150   -6.1540   -2.1690 hn        1 MOL      0.305830
     57 H21        -3.9460   -3.7060   -1.2910 h1        1 MOL      0.128498
     58 H22        -3.1030   -5.4210   -3.0640 hc        1 MOL      0.051923
     59 H23        -2.5450   -6.4080   -1.7330 hc        1 MOL      0.051923
     60 H24        -0.7190   -5.4250   -3.4670 hn        1 MOL      0.315217
     61 H25         0.2990   -4.4100   -2.3840 hn        1 MOL      0.315217
     62 N7         -3.7940   -4.2240    1.2400 n         1 MOL     -0.383347
     63 C20        -3.4670   -4.6340    2.6350 c3        1 MOL     -0.168750
     64 C21        -2.0030   -5.0140    3.0050 c         1 MOL      0.442994
     65 O12        -1.6530   -5.2340    4.1810 o         1 MOL     -0.550171
     66 H26        -3.9290   -3.2610    0.9820 hn        1 MOL      0.304423
     67 H27        -4.0450   -5.5340    2.8500 h1        1 MOL      0.114340
     68 H28        -3.8510   -3.9120    3.3630 h1        1 MOL      0.114340
     69 N8         -1.1140   -4.9370    1.9780 n         1 MOL     -0.104617
     70 C22         0.3340   -5.1440    2.1490 c3        1 MOL     -0.137694
     71 C23         1.0780   -3.7880    1.9750 c         1 MOL      0.549850
     72 O13         0.6020   -2.8820    1.3040 o         1 MOL     -0.609424
     73 C24         0.7100   -6.2930    1.2390 c3        1 MOL      0.426133
     74 C25         0.0240   -7.5750    1.5500 c3        1 MOL     -0.229579
     75 O14         0.6410   -6.0900   -0.1700 oh        1 MOL     -0.663569
     76 H29        -1.3750   -4.6130    1.0600 hn        1 MOL      0.160366
     77 H30         0.4540   -5.4890    3.1770 h1        1 MOL      0.068313
     78 H31         1.7830   -6.4030    1.4170 h1        1 MOL     -0.049875
     79 H32         1.4410   -5.6080   -0.3920 ho        1 MOL      0.422167
     80 H33        -1.0540   -7.5320    1.4020 hc        1 MOL      0.049899
     81 H34         0.4270   -8.4290    1.0070 hc        1 MOL      0.049899
     82 H35         0.2610   -7.8690    2.5730 hc        1 MOL      0.049899
     83 N9          2.2960   -3.7030    2.5150 n         1 MOL     -0.359476
     84 C26         3.2540   -2.5770    2.3970 c3        1 MOL     -0.052296
     85 C27         4.3140   -2.8940    1.3240 c         1 MOL      0.421099
     86 O15         5.2220   -3.6660    1.5220 o         1 MOL     -0.565813
     87 C28         3.8660   -2.3230    3.7240 c3        1 MOL      0.488841
     88 C29         5.1020   -1.3510    3.6270 c3        1 MOL     -0.255621
     89 C30         2.9200   -1.8180    4.8520 c3        1 MOL     -0.435013
     90 C31         4.9290    0.1640    3.1620 c3        1 MOL     -0.127583
     91 H36         2.4900   -4.2830    3.3220 hn        1 MOL      0.221417
     92 H37         2.6860   -1.6730    2.1850 h1        1 MOL      0.098558
     93 H38         4.3470   -3.2150    4.1490 hc        1 MOL     -0.060379
     94 H39         5.8910   -1.8150    3.0350 hc        1 MOL      0.050342
     95 H40         5.4450   -1.3920    4.6540 hc        1 MOL      0.050342
     96 H41         2.3070   -0.9890    4.5040 hc        1 MOL      0.094381
     97 H42         2.3260   -2.6510    5.2380 hc        1 MOL      0.094381
     98 H43         3.5460   -1.5670    5.7130 hc        1 MOL      0.094381
     99 H44         4.9440    0.3460    2.0900 hc        1 MOL      0.038654
    100 H45         4.0080    0.6570    3.4610 hc        1 MOL      0.038654
    101 H46         5.5870    0.8700    3.6640 hc        1 MOL      0.038654
    102 N10         4.2640   -2.1700    0.2170 n         1 MOL     -0.140041
    103 C32         4.9700   -2.4500   -1.0610 c3        1 MOL      0.011032
    104 C33         5.9610   -1.4180   -1.5780 c         1 MOL      0.480777
    105 O16         6.4680   -1.5790   -2.6910 o         1 MOL     -0.530939
    106 C34         3.9110   -2.7400   -2.0830 c3        1 MOL     -0.277640
    107 C35         2.6620   -3.5510   -1.6150 c         1 MOL      0.717776
    108 O17         2.7220   -4.5960   -0.8960 o         1 MOL     -0.660386
    109 O18         1.5050   -3.0890   -1.9050 o         1 MOL     -0.660386
    110 H47         3.4600   -1.5510    0.1330 hn        1 MOL      0.108630
    111 H48         5.5120   -3.3880   -0.9480 h1        1 MOL      0.110145
    112 H49         4.3590   -3.2990   -2.8990 hc        1 MOL      0.084738
    113 H50         3.5560   -1.7770   -2.4650 hc        1 MOL      0.084738
    114 N11         6.1150   -0.3610   -0.7830 n         1 MOL     -0.427350
    115 C36         7.0260    0.7780   -1.1210 c3        1 MOL      0.222728
    116 C37         6.4400    2.1560   -0.5720 c         1 MOL      0.397218
    117 O19         6.0450    2.1980    0.5900 o         1 MOL     -0.532785
    118 C38         8.4130    0.4030   -0.4960 c3        1 MOL     -0.330020
    119 C39         9.4430    1.5260   -0.5550 ca        1 MOL      0.142144
    120 C40        10.0290    1.9670    0.6700 ca        1 MOL     -0.155242
    121 C41         9.9250    1.9780   -1.7910 ca        1 MOL     -0.155242
    122 C42        10.9330    3.0480    0.5740 ca        1 MOL     -0.165189
    123 C43        10.8860    3.0730   -1.8730 ca        1 MOL     -0.165189
    124 C44        11.3180    3.6500   -0.6430 ca        1 MOL     -0.057367
    125 H51         5.6630   -0.3120    0.1180 hn        1 MOL      0.262184
    126 H52         7.1010    0.7770   -2.2110 h1        1 MOL      0.026213
    127 H53         8.7880   -0.5620   -0.8230 hc        1 MOL      0.125651
    128 H54         8.1740    0.3000    0.5620 hc        1 MOL      0.125651
    129 H55         9.7610    1.5680    1.6460 ha        1 MOL      0.135183
    130 H56         9.5710    1.5470   -2.7190 ha        1 MOL      0.135183
    131 H57        11.3640    3.4110    1.5000 ha        1 MOL      0.116948
    132 H58        11.3570    3.3410   -2.7990 ha        1 MOL      0.116948
    133 H59        11.9690    4.5100   -0.6220 ha        1 MOL      0.095379
    134 N12         6.4400    3.2670   -1.3050 n         1 MOL     -0.071753
    135 C45         6.2560    4.6510   -0.7870 c3        1 MOL      0.096832
    136 C46         4.8840    5.0230   -0.2320 c         1 MOL      0.315101
    137 O20         4.7340    6.2010    0.1070 o         1 MOL     -0.518961
    138 C47         6.7820    5.5170   -1.9170 c3        1 MOL     -0.204558
    139 C48         7.6360    4.5470   -2.7220 c3        1 MOL     -0.031090
    140 C49         6.7370    3.3670   -2.7120 c3        1 MOL     -0.075239
    141 H60         6.9950    4.6300    0.0040 h1        1 MOL      0.079724
    142 H61         5.8890    5.8770   -2.4380 hc        1 MOL      0.090297
    143 H62         7.3930    6.3430   -1.5390 hc        1 MOL      0.090297
    144 H63         7.7210    4.9360   -3.7260 hc        1 MOL      0.031759
    145 H64         8.5940    4.3960   -2.2140 hc        1 MOL      0.031759
    146 H65         5.8490    3.6320   -3.3000 h1        1 MOL      0.067852
    147 H66         7.2750    2.5460   -3.1850 h1        1 MOL      0.067852
    148 N13         3.9010    4.1150   -0.1490 n         1 MOL     -0.146162
    149 C50         2.5560    4.3700    0.4470 c3        1 MOL     -0.141520
    150 C51         2.5980    4.7610    1.9480 c         1 MOL      0.514283
    151 O21         1.6710    5.4270    2.3530 o         1 MOL     -0.525190
    152 C52         1.7220    3.1680    0.1210 c3        1 MOL     -0.027921
    153 C53         2.3700    1.8460    0.5860 c3        1 MOL      0.094048
    154 C54         1.4400    0.7250    0.0460 c         1 MOL      0.590922
    155 O22         0.2000    0.7490    0.2090 o         1 MOL     -0.688002
    156 O23         1.9840   -0.1970   -0.5750 o         1 MOL     -0.688002
    157 H67         4.1570    3.1650   -0.3580 hn        1 MOL      0.086245
    158 H68         2.0480    5.1680   -0.0890 h1        1 MOL      0.127487
    159 H69         1.6250    3.1760   -0.9570 hc        1 MOL      0.052085
    160 H70         0.7650    3.3670    0.6020 hc        1 MOL      0.052085
    161 H71         2.3910    1.6990    1.6670 hc        1 MOL     -0.030207
    162 H72         3.3750    1.6860    0.1960 hc        1 MOL     -0.030207
    163 N14         3.6840    4.4790    2.6810 n         1 MOL     -0.193481
    164 C55         3.8520    4.9220    4.0860 c3        1 MOL     -0.281734
    165 H73         4.6150    4.3130    4.5700 h1        1 MOL      0.115323
    166 H74         4.1580    5.9680    4.1040 h1        1 MOL      0.115323
    167 H75         2.9070    4.8100    4.6190 h1        1 MOL      0.115323
    168 H76         4.4230    4.0280    2.1640 hn        1 MOL      0.215810
    169 Ca1        -0.2870   -1.4650   -0.9280 Ca        1 MOL      1.803362
    170 O24        -2.3040   -1.1640    0.7700 oh        1 MOL     -0.907128
    171 H77        -3.2380   -1.3780    0.7250 ho        1 MOL      0.421989
    172 H78        -2.2540   -0.4150    1.3760 ho        1 MOL      0.421989
    173 O25         0.4430   -0.8950   -3.3650 oh        1 MOL     -0.907128
    174 H79         1.1620   -0.9890   -3.9880 ho        1 MOL      0.421989
    175 H80        -0.1680   -0.2930   -3.8010 ho        1 MOL      0.421989
@<TRIPOS>BOND
     1    1    2 1   
     2    1    4 1   
     3    1    5 1   
     4    1    6 1   
     5    2    3 2   
     6    2    7 1   
     7    7    8 1   
     8    7   15 1   
     9    8    9 1   
    10    8   11 1   
    11    8   16 1   
    12    9   10 2   
    13    9   19 1   
    14   11   12 1   
    15   11   17 1   
    16   11   18 1   
    17   12   13 1   
    18   12   14 1   
    19   19   20 1   
    20   19   24 1   
    21   20   21 1   
    22   20   23 1   
    23   20   25 1   
    24   21   22 2   
    25   21   29 1   
    26   23   26 1   
    27   23   27 1   
    28   23   28 1   
    29   29   30 1   
    30   29   37 1   
    31   30   31 1   
    32   30   33 1   
    33   30   38 1   
    34   31   32 2   
    35   31   41 1   
    36   33   34 1   
    37   33   39 1   
    38   33   40 1   
    39   34   35 1   
    40   34   36 1   
    41   41   42 1   
    42   41   45 1   
    43   42   43 1   
    44   42   46 1   
    45   42   47 1   
    46   43   44 2   
    47   43   48 1   
    48   48   49 1   
    49   48   56 1   
    50   49   50 1   
    51   49   52 1   
    52   49   57 1   
    53   50   51 2   
    54   50   62 1   
    55   52   53 1   
    56   52   58 1   
    57   52   59 1   
    58   53   54 1   
    59   53   55 2   
    60   54   60 1   
    61   54   61 1   
    62   62   63 1   
    63   62   66 1   
    64   63   64 1   
    65   63   67 1   
    66   63   68 1   
    67   64   65 2   
    68   64   69 1   
    69   69   70 1   
    70   69   76 1   
    71   70   71 1   
    72   70   73 1   
    73   70   77 1   
    74   71   72 2   
    75   71   83 1   
    76   73   74 1   
    77   73   75 1   
    78   73   78 1   
    79   74   80 1   
    80   74   81 1   
    81   74   82 1   
    82   75   79 1   
    83   83   84 1   
    84   83   91 1   
    85   84   85 1   
    86   84   87 1   
    87   84   92 1   
    88   85   86 2   
    89   85  102 1   
    90   87   88 1   
    91   87   89 1   
    92   87   93 1   
    93   88   90 1   
    94   88   94 1   
    95   88   95 1   
    96   89   96 1   
    97   89   97 1   
    98   89   98 1   
    99   90   99 1   
   100   90  100 1   
   101   90  101 1   
   102  102  103 1   
   103  102  110 1   
   104  103  104 1   
   105  103  106 1   
   106  103  111 1   
   107  104  105 2   
   108  104  114 1   
   109  106  107 1   
   110  106  112 1   
   111  106  113 1   
   112  107  108 1   
   113  107  109 1   
   114  114  115 1   
   115  114  125 1   
   116  115  116 1   
   117  115  118 1   
   118  115  126 1   
   119  116  117 2   
   120  116  134 1   
   121  118  119 1   
   122  118  127 1   
   123  118  128 1   
   124  119  120 ar  
   125  119  121 ar  
   126  120  122 ar  
   127  120  129 1   
   128  121  123 ar  
   129  121  130 1   
   130  122  124 ar  
   131  122  131 1   
   132  123  124 ar  
   133  123  132 1   
   134  124  133 1   
   135  134  135 1   
   136  134  140 1   
   137  135  136 1   
   138  135  138 1   
   139  135  141 1   
   140  136  137 2   
   141  136  148 1   
   142  138  139 1   
   143  138  142 1   
   144  138  143 1   
   145  139  140 1   
   146  139  144 1   
   147  139  145 1   
   148  140  146 1   
   149  140  147 1   
   150  148  149 1   
   151  148  157 1   
   152  149  150 1   
   153  149  152 1   
   154  149  158 1   
   155  150  151 2   
   156  150  163 1   
   157  152  153 1   
   158  152  159 1   
   159  152  160 1   
   160  153  154 1   
   161  153  161 1   
   162  153  162 1   
   163  154  155 1   
   164  154  156 1   
   165  163  164 1   
   166  163  168 1   
   167  164  165 1   
   168  164  166 1   
   169  164  167 1   
   170  170  171 1   
   171  170  172 1   
   172  173  174 1   
   173  173  175 1   
@<TRIPOS>SUBSTRUCTURE
     1 MOL         1 TEMP              0 ****  ****    0 ROOT
