@<TRIPOS>MOLECULE
MOL
  191   184     1     0     0
SMALL
resp


@<TRIPOS>ATOM
      1 C1         -6.1060   -1.5190    3.5910 c3        1 MOL     -0.417672
      2 C2         -6.5620   -1.6580    2.0740 c         1 MOL      0.566776
      3 O1         -6.0350   -1.0000    1.1680 o         1 MOL     -0.477957
      4 H1         -6.9830   -1.5570    4.2380 hc        1 MOL      0.111636
      5 H2         -5.4330   -2.3380    3.8460 hc        1 MOL      0.111636
      6 H3         -5.5930   -0.5690    3.7310 hc        1 MOL      0.111636
      7 N1         -7.5300   -2.5320    1.8120 n         1 MOL     -0.579500
      8 C3         -8.0680   -2.7870    0.4240 c3        1 MOL      0.305902
      9 C4         -8.4060   -1.5200   -0.2930 c         1 MOL      0.386614
     10 O2         -8.3930   -1.6030   -1.5360 o         1 MOL     -0.457224
     11 C5         -7.2100   -3.7530   -0.3300 c3        1 MOL     -0.277028
     12 C6         -7.9350   -4.4630   -1.4390 c         1 MOL      0.722665
     13 O3         -9.1180   -4.7610   -1.2420 o         1 MOL     -0.657487
     14 O4         -7.2290   -4.8520   -2.4320 o         1 MOL     -0.657487
     15 H4         -7.8580   -3.0690    2.5980 hn        1 MOL      0.332942
     16 H5         -8.9770   -3.3750    0.6190 h1        1 MOL      0.001841
     17 H6         -6.9820   -4.5820    0.3440 hc        1 MOL      0.085273
     18 H7         -6.3220   -3.2320   -0.6650 hc        1 MOL      0.085273
     19 N2         -8.7210   -0.4050    0.3400 n         1 MOL     -0.415271
     20 C7         -8.8610    0.9020   -0.3340 c3        1 MOL      0.101651
     21 C8         -7.5350    1.5300   -0.9550 c         1 MOL      0.399782
     22 O5         -7.6630    2.5280   -1.6750 o         1 MOL     -0.548478
     23 C9         -9.5350    1.9420    0.5690 c3        1 MOL     -0.161765
     24 C10        -8.6280    2.3890    1.7850 c3        1 MOL     -0.003233
     25 C11        -9.2280    3.3880    2.9040 c3        1 MOL     -0.056472
     26 C12        -8.0960    3.8860    3.8180 c3        1 MOL      0.142848
     27 N3         -8.5790    4.6280    4.9700 n4        1 MOL     -0.165950
     28 H8         -8.7590   -0.4730    1.3480 hn        1 MOL      0.215858
     29 H9         -9.4200    0.7150   -1.2450 h1        1 MOL      0.108605
     30 H10       -10.5540    1.6550    0.8400 hc        1 MOL      0.068354
     31 H11        -9.6650    2.8200   -0.0620 hc        1 MOL      0.068354
     32 H12        -7.6900    2.8480    1.4770 hc        1 MOL      0.047832
     33 H13        -8.2830    1.4650    2.2590 hc        1 MOL      0.047832
     34 H14        -9.9130    2.8250    3.5320 hc        1 MOL      0.031107
     35 H15        -9.6610    4.2750    2.4380 hc        1 MOL      0.031107
     36 H16        -7.3990    4.4850    3.2280 hx        1 MOL      0.021009
     37 H17        -7.5570    2.9900    4.1490 hx        1 MOL      0.021009
     38 H18        -9.2730    5.3060    4.6920 hn        1 MOL      0.179337
     39 H19        -9.0130    4.0070    5.6330 hn        1 MOL      0.179337
     40 H20        -7.8480    5.0830    5.4970 hn        1 MOL      0.179337
     41 N4         -6.4120    1.1230   -0.5310 n         1 MOL     -0.060161
     42 C13        -5.1710    1.8450   -0.7130 c3        1 MOL     -0.391430
     43 C14        -4.7440    1.9430   -2.2000 c         1 MOL      0.662458
     44 O6         -4.8340    0.9640   -2.9390 o         1 MOL     -0.441820
     45 C15        -4.1330    1.1470    0.1720 c3        1 MOL     -0.023495
     46 C16        -2.8130    1.9810    0.3400 c         1 MOL      0.740027
     47 O7         -2.0330    2.1380   -0.6320 o         1 MOL     -0.768326
     48 O8         -2.4640    2.3150    1.4600 o         1 MOL     -0.768326
     49 H21        -6.3640    0.3830    0.1470 hn        1 MOL      0.145624
     50 H22        -5.3270    2.8330   -0.2590 h1        1 MOL      0.080119
     51 H23        -3.9610    0.2350   -0.3930 hc        1 MOL      0.038162
     52 H24        -4.5160    0.8100    1.1400 hc        1 MOL      0.038162
     53 N5         -4.1500    3.0790   -2.6660 n         1 MOL     -0.397050
     54 C17        -3.6380    3.2230   -4.0120 c3        1 MOL     -0.190382
     55 C18        -2.5120    2.2680   -4.4840 c         1 MOL      0.445776
     56 O9         -2.2080    2.2210   -5.6770 o         1 MOL     -0.549203
     57 H25        -3.9260    3.7840   -1.9780 hn        1 MOL      0.257960
     58 H26        -3.2820    4.2500   -4.1200 h1        1 MOL      0.120278
     59 H27        -4.4340    2.9290   -4.6950 h1        1 MOL      0.120278
     60 N6         -1.9060    1.5850   -3.5460 n         1 MOL     -0.101682
     61 C19        -0.8430    0.6220   -3.7780 c3        1 MOL     -0.091642
     62 C20        -1.3280   -0.8150   -3.3880 c         1 MOL      0.451986
     63 O10        -0.4960   -1.7120   -3.4300 o         1 MOL     -0.482233
     64 C21         0.3910    1.1780   -2.9350 c3        1 MOL     -0.193224
     65 C22         0.5770    2.7010   -2.9010 c         1 MOL      0.652163
     66 N7          0.6110    3.3630   -4.0340 n         1 MOL     -0.728779
     67 O11         0.6570    3.2810   -1.8570 o         1 MOL     -0.665318
     68 H28        -2.1300    1.8000   -2.5810 hn        1 MOL      0.270279
     69 H29        -0.5480    0.5890   -4.8290 h1        1 MOL      0.113045
     70 H30         1.2850    0.7540   -3.4010 hc        1 MOL      0.061082
     71 H31         0.2860    0.8240   -1.9130 hc        1 MOL      0.061082
     72 H32         0.8300    2.8030   -4.8490 hn        1 MOL      0.370854
     73 H33         0.7680    4.3620   -3.9710 hn        1 MOL      0.370854
     74 N8         -2.5870   -1.0180   -3.0280 n         1 MOL     -0.205168
     75 C23        -3.1420   -2.3350   -2.7110 c3        1 MOL     -0.161420
     76 C24        -2.7640   -2.9440   -1.3610 c         1 MOL      0.568609
     77 O12        -3.0530   -4.0980   -0.9880 o         1 MOL     -0.523146
     78 H34        -3.3190   -0.3250   -2.9910 hn        1 MOL      0.150231
     79 H35        -2.8280   -3.1260   -3.3740 h1        1 MOL      0.134570
     80 H36        -4.2280   -2.2320   -2.7420 h1        1 MOL      0.134570
     81 N9         -1.8470   -2.2120   -0.7450 n         1 MOL     -0.422847
     82 C25        -1.0720   -2.5750    0.5220 c3        1 MOL      0.158018
     83 C26         0.3170   -1.9590    0.5670 c         1 MOL      0.370688
     84 O13         0.4940   -0.9180   -0.0450 o         1 MOL     -0.345665
     85 C27        -1.9040   -2.2520    1.7890 c3        1 MOL     -0.362133
     86 C28        -1.2990   -2.4770    3.1060 ca        1 MOL      0.337037
     87 C29        -1.2160   -3.7210    3.6950 ca        1 MOL     -0.320872
     88 C30        -0.7680   -1.4070    3.7810 ca        1 MOL     -0.320872
     89 C31        -0.5600   -3.9480    4.9410 ca        1 MOL     -0.165889
     90 C32        -0.1700   -1.5990    5.0690 ca        1 MOL     -0.165889
     91 C33        -0.0850   -2.8480    5.6790 ca        1 MOL      0.261945
     92 O14         0.4690   -3.0140    6.9050 oh        1 MOL     -0.445637
     93 H37        -1.4670   -1.3560   -1.1040 hn        1 MOL      0.194930
     94 H38        -0.8410   -3.6400    0.4850 h1        1 MOL      0.055249
     95 H39        -2.8030   -2.8630    1.7060 hc        1 MOL      0.133799
     96 H40        -2.2040   -1.2020    1.7450 hc        1 MOL      0.133799
     97 H41        -1.5590   -4.5800    3.1370 ha        1 MOL      0.166729
     98 H42        -0.6860   -0.4710    3.2600 ha        1 MOL      0.166729
     99 H43        -0.5320   -4.9290    5.3830 ha        1 MOL      0.129555
    100 H44         0.3640   -0.7450    5.4690 ha        1 MOL      0.129555
    101 H45         0.5620   -2.2070    7.4190 ho        1 MOL      0.348782
    102 N10         1.2830   -2.6360    1.1850 n         1 MOL     -0.401773
    103 C34         2.7050   -2.1670    1.2460 c3        1 MOL     -0.367690
    104 C35         3.3790   -2.2130   -0.1740 c         1 MOL      0.325812
    105 O15         4.2600   -1.4220   -0.5760 o         1 MOL     -0.468608
    106 C36         3.4450   -2.9830    2.3000 c3        1 MOL      0.381454
    107 C37         2.8840   -2.6730    3.6260 c3        1 MOL      0.130231
    108 C38         5.0070   -2.9400    2.2230 c3        1 MOL     -0.150395
    109 C39         3.4970   -3.5880    4.7170 c3        1 MOL     -0.279828
    110 H46         1.0650   -3.5450    1.5580 hn        1 MOL      0.340411
    111 H47         2.6910   -1.1100    1.5210 h1        1 MOL      0.125805
    112 H48         3.2270   -4.0420    2.1770 hc        1 MOL     -0.070573
    113 H49         1.8080   -2.8240    3.6060 hc        1 MOL     -0.047966
    114 H50         3.1600   -1.6350    3.7920 hc        1 MOL     -0.047966
    115 H51         5.5140   -2.1000    2.6960 hc        1 MOL      0.036708
    116 H52         5.3800   -3.8470    2.7010 hc        1 MOL      0.036708
    117 H53         5.5280   -3.0200    1.2670 hc        1 MOL      0.036708
    118 H54         3.0600   -4.5850    4.7360 hc        1 MOL      0.073121
    119 H55         4.5850   -3.4820    4.7310 hc        1 MOL      0.073121
    120 H56         3.3080   -3.1940    5.7190 hc        1 MOL      0.073121
    121 N11         2.8240   -3.0590   -1.0470 n         1 MOL     -0.076381
    122 C40         3.1270   -3.1380   -2.4770 c3        1 MOL     -0.146227
    123 C41         4.5870   -3.4210   -2.8250 c         1 MOL      0.349468
    124 O16         5.1190   -2.9570   -3.7760 o         1 MOL     -0.455386
    125 C42         2.2040   -4.0880   -3.1840 c3        1 MOL      0.071965
    126 O17         0.8070   -3.8900   -2.9070 oh        1 MOL     -0.584232
    127 H57         2.0470   -3.6080   -0.7180 hn        1 MOL      0.210798
    128 H58         2.9950   -2.1450   -2.9270 h1        1 MOL      0.138896
    129 H59         2.3940   -5.1270   -2.8980 h1        1 MOL      0.075055
    130 H60         2.4200   -3.9540   -4.2510 h1        1 MOL      0.075055
    131 H61         0.3610   -3.1150   -3.2850 ho        1 MOL      0.395897
    132 N12         5.2450   -3.9910   -1.8070 n         1 MOL     -0.162844
    133 C43         6.6680   -3.9870   -1.5610 c3        1 MOL      0.070178
    134 C44         7.5070   -2.7310   -1.6970 c         1 MOL      0.569740
    135 O18         8.6880   -2.8620   -2.0890 o         1 MOL     -0.540180
    136 C45         7.2610   -5.3150   -2.1450 c3        1 MOL     -0.478829
    137 H62         4.6670   -4.3480   -1.0670 hn        1 MOL      0.146878
    138 H63         6.6260   -4.1460   -0.4850 h1        1 MOL      0.090435
    139 H64         7.1650   -5.2290   -3.2290 hc        1 MOL      0.134110
    140 H65         8.3100   -5.4910   -1.8990 hc        1 MOL      0.134110
    141 H66         6.5130   -6.0910   -1.9450 hc        1 MOL      0.134110
    142 N13         6.9810   -1.5400   -1.3850 n         1 MOL     -0.580912
    143 C46         7.7640   -0.2870   -1.5780 c3        1 MOL      0.417666
    144 C47         8.3060    0.3100   -0.2900 c         1 MOL      0.399093
    145 O19         7.7960   -0.1260    0.7010 o         1 MOL     -0.482411
    146 C48         6.8730    0.7190   -2.3070 c3        1 MOL     -0.187843
    147 H67         5.9920   -1.4000   -1.2730 hn        1 MOL      0.305378
    148 H68         8.6120   -0.4580   -2.2540 h1        1 MOL     -0.031284
    149 H69         5.9720    0.9900   -1.7520 hc        1 MOL      0.038138
    150 H70         7.3730    1.6580   -2.5260 hc        1 MOL      0.038138
    151 H71         6.5140    0.2050   -3.1970 hc        1 MOL      0.038138
    152 N14         9.2260    1.2710   -0.3910 n         1 MOL     -0.483089
    153 C49        10.0060    1.9080    0.6970 c3        1 MOL      0.119835
    154 C50        10.0840    1.0560    1.9420 c         1 MOL      0.466387
    155 O20         9.8610    1.4840    3.0610 o         1 MOL     -0.507713
    156 C51         9.4180    3.2740    1.0390 c3        1 MOL      0.121784
    157 C52         9.4510    4.3200   -0.1150 c3        1 MOL     -0.100267
    158 C53         8.9910    5.6480    0.5160 c         1 MOL      0.644861
    159 O21         9.6460    6.1980    1.4120 o         1 MOL     -0.648789
    160 O22         7.8950    6.1940    0.1130 o         1 MOL     -0.648789
    161 H72         9.4640    1.4160   -1.3620 hn        1 MOL      0.269555
    162 H73        11.0470    2.0690    0.4330 h1        1 MOL      0.014609
    163 H74        10.0180    3.6500    1.8740 hc        1 MOL     -0.007372
    164 H75         8.3810    3.2020    1.3610 hc        1 MOL     -0.007372
    165 H76         8.7330    4.2460   -0.9330 hc        1 MOL     -0.014813
    166 H77        10.4080    4.4570   -0.6120 hc        1 MOL     -0.014813
    167 N15        10.5520   -0.1570    1.7420 n         1 MOL     -0.272850
    168 C54        10.6090   -1.1890    2.7600 c3        1 MOL     -0.207719
    169 H78         9.6030   -1.3920    3.1270 h1        1 MOL      0.100101
    170 H79        11.0300   -2.0990    2.3310 h1        1 MOL      0.100101
    171 H80        11.2360   -0.8510    3.5850 h1        1 MOL      0.100101
    172 H81        10.7730   -0.4700    0.8030 hn        1 MOL      0.228138
    173 Ca1        -0.3420    3.6870    0.5200 Ca        1 MOL      1.791688
    174 O23         0.5590    3.3380    2.9980 oh        1 MOL     -0.862120
    175 H82         0.9820    2.4860    2.9210 ho        1 MOL      0.429302
    176 H83         0.8980    3.7030    3.8180 ho        1 MOL      0.429302
    177 O24         0.4780    6.3490    0.1290 oh        1 MOL     -0.862120
    178 H84         1.2450    6.4690    0.6840 ho        1 MOL      0.429302
    179 H85         0.6770    6.8090   -0.6840 ho        1 MOL      0.429302
    180 O25        -1.8050    5.3490    1.7790 oh        1 MOL     -0.862120
    181 H86        -2.0050    5.1600    2.6900 ho        1 MOL      0.429302
    182 H87        -1.8000    6.3100    1.7190 ho        1 MOL      0.429302
    183 O26        -1.5940    5.0570   -1.5610 oh        1 MOL     -0.862120
    184 H88        -2.4910    5.3650   -1.4400 ho        1 MOL      0.429302
    185 H89        -1.1570    5.7640   -2.0360 ho        1 MOL      0.429302
    186 O27         1.0380    1.3410    1.0710 oh        1 MOL     -0.862120
    187 H90         0.7200    0.5150    0.7110 ho        1 MOL      0.429302
    188 H91         1.9880    1.2860    0.9910 ho        1 MOL      0.429302
    189 O28         2.6700    4.1630    0.4280 oh        1 MOL     -0.862120
    190 H92         3.4390    4.5430    0.8520 ho        1 MOL      0.429302
    191 H93         2.9820    3.8610   -0.4190 ho        1 MOL      0.429302
@<TRIPOS>BOND
     1    1    2 1   
     2    1    4 1   
     3    1    5 1   
     4    1    6 1   
     5    2    3 2   
     6    2    7 1   
     7    7    8 1   
     8    7   15 1   
     9    8    9 1   
    10    8   11 1   
    11    8   16 1   
    12    9   10 2   
    13    9   19 1   
    14   11   12 1   
    15   11   17 1   
    16   11   18 1   
    17   12   13 1   
    18   12   14 1   
    19   19   20 1   
    20   19   28 1   
    21   20   21 1   
    22   20   23 1   
    23   20   29 1   
    24   21   22 2   
    25   21   41 1   
    26   23   24 1   
    27   23   30 1   
    28   23   31 1   
    29   24   25 1   
    30   24   32 1   
    31   24   33 1   
    32   25   26 1   
    33   25   34 1   
    34   25   35 1   
    35   26   27 1   
    36   26   36 1   
    37   26   37 1   
    38   27   38 1   
    39   27   39 1   
    40   27   40 1   
    41   41   42 1   
    42   41   49 1   
    43   42   43 1   
    44   42   45 1   
    45   42   50 1   
    46   43   44 2   
    47   43   53 1   
    48   45   46 1   
    49   45   51 1   
    50   45   52 1   
    51   46   47 1   
    52   46   48 1   
    53   53   54 1   
    54   53   57 1   
    55   54   55 1   
    56   54   58 1   
    57   54   59 1   
    58   55   56 2   
    59   55   60 1   
    60   60   61 1   
    61   60   68 1   
    62   61   62 1   
    63   61   64 1   
    64   61   69 1   
    65   62   63 2   
    66   62   74 1   
    67   64   65 1   
    68   64   70 1   
    69   64   71 1   
    70   65   66 1   
    71   65   67 2   
    72   66   72 1   
    73   66   73 1   
    74   74   75 1   
    75   74   78 1   
    76   75   76 1   
    77   75   79 1   
    78   75   80 1   
    79   76   77 2   
    80   76   81 1   
    81   81   82 1   
    82   81   93 1   
    83   82   83 1   
    84   82   85 1   
    85   82   94 1   
    86   83   84 2   
    87   83  102 1   
    88   85   86 1   
    89   85   95 1   
    90   85   96 1   
    91   86   87 ar  
    92   86   88 ar  
    93   87   89 ar  
    94   87   97 1   
    95   88   90 ar  
    96   88   98 1   
    97   89   91 ar  
    98   89   99 1   
    99   90   91 ar  
   100   90  100 1   
   101   91   92 1   
   102   92  101 1   
   103  102  103 1   
   104  102  110 1   
   105  103  104 1   
   106  103  106 1   
   107  103  111 1   
   108  104  105 2   
   109  104  121 1   
   110  106  107 1   
   111  106  108 1   
   112  106  112 1   
   113  107  109 1   
   114  107  113 1   
   115  107  114 1   
   116  108  115 1   
   117  108  116 1   
   118  108  117 1   
   119  109  118 1   
   120  109  119 1   
   121  109  120 1   
   122  121  122 1   
   123  121  127 1   
   124  122  123 1   
   125  122  125 1   
   126  122  128 1   
   127  123  124 2   
   128  123  132 1   
   129  125  126 1   
   130  125  129 1   
   131  125  130 1   
   132  126  131 1   
   133  132  133 1   
   134  132  137 1   
   135  133  134 1   
   136  133  136 1   
   137  133  138 1   
   138  134  135 2   
   139  134  142 1   
   140  136  139 1   
   141  136  140 1   
   142  136  141 1   
   143  142  143 1   
   144  142  147 1   
   145  143  144 1   
   146  143  146 1   
   147  143  148 1   
   148  144  145 2   
   149  144  152 1   
   150  146  149 1   
   151  146  150 1   
   152  146  151 1   
   153  152  153 1   
   154  152  161 1   
   155  153  154 1   
   156  153  156 1   
   157  153  162 1   
   158  154  155 2   
   159  154  167 1   
   160  156  157 1   
   161  156  163 1   
   162  156  164 1   
   163  157  158 1   
   164  157  165 1   
   165  157  166 1   
   166  158  159 1   
   167  158  160 1   
   168  167  168 1   
   169  167  172 1   
   170  168  169 1   
   171  168  170 1   
   172  168  171 1   
   173  174  175 1   
   174  174  176 1   
   175  177  178 1   
   176  177  179 1   
   177  180  181 1   
   178  180  182 1   
   179  183  184 1   
   180  183  185 1   
   181  186  187 1   
   182  186  188 1   
   183  189  190 1   
   184  189  191 1   
@<TRIPOS>SUBSTRUCTURE
     1 MOL         1 TEMP              0 ****  ****    0 ROOT
