@<TRIPOS>MOLECULE
MOL
  178   175     1     0     0
SMALL
resp


@<TRIPOS>ATOM
      1 C1          3.1810   -0.8480    4.5260 c3        1 MOL     -0.332611
      2 C2          4.5130   -0.2680    4.0380 c         1 MOL      0.633285
      3 O1          4.8510    0.9100    4.1450 o         1 MOL     -0.620654
      4 H1          3.3590   -1.4810    5.3960 hc        1 MOL      0.088269
      5 H2          2.5080   -0.0360    4.8010 hc        1 MOL      0.088269
      6 H3          2.7300   -1.4430    3.7320 hc        1 MOL      0.088269
      7 N1          5.3290   -1.1440    3.5010 n         1 MOL     -0.438973
      8 C3          6.6750   -0.8340    2.9930 c3        1 MOL      0.191000
      9 C4          6.5840   -0.7690    1.4320 c         1 MOL      0.619841
     10 O2          5.7700   -1.4900    0.8320 o         1 MOL     -0.575299
     11 C5          7.7420   -1.8350    3.3810 c3        1 MOL     -0.126135
     12 C6          7.4660   -3.2910    3.0110 c         1 MOL      0.692677
     13 O3          8.3040   -3.8110    2.2640 o         1 MOL     -0.697539
     14 O4          6.4350   -3.8560    3.4380 o         1 MOL     -0.697539
     15 H4          5.0240   -2.1000    3.4670 hn        1 MOL      0.187934
     16 H5          6.9860    0.1550    3.3370 h1        1 MOL      0.008778
     17 H6          7.8010   -1.7100    4.4710 hc        1 MOL     -0.004090
     18 H7          8.7070   -1.5540    2.9680 hc        1 MOL     -0.004090
     19 N2          7.3250    0.1610    0.7910 n         1 MOL     -0.670371
     20 C7          7.4060    0.2950   -0.6630 c3        1 MOL      0.517163
     21 C8          6.1650    0.9530   -1.2700 c         1 MOL      0.274470
     22 O5          5.5720    1.7640   -0.6140 o         1 MOL     -0.513839
     23 C9          8.6140    1.2400   -1.0830 c3        1 MOL     -0.459019
     24 H8          7.9540    0.7310    1.3460 hn        1 MOL      0.322809
     25 H9          7.5870   -0.7050   -1.0650 h1        1 MOL     -0.000095
     26 H10         8.5390    2.2490   -0.6880 hc        1 MOL      0.113850
     27 H11         9.5120    0.8130   -0.6270 hc        1 MOL      0.113850
     28 H12         8.6790    1.2020   -2.1690 hc        1 MOL      0.113850
     29 N3          5.6320    0.5040   -2.3970 n         1 MOL     -0.529135
     30 C10         4.2620    0.7010   -3.0090 c3        1 MOL     -0.016831
     31 C11         3.8590    2.1190   -3.4910 c         1 MOL      0.614101
     32 O6          2.8400    2.3810   -4.0890 o         1 MOL     -0.512454
     33 C12         3.8620   -0.3860   -3.9400 c3        1 MOL     -0.431755
     34 C13         4.2100   -1.7760   -3.4630 c         1 MOL      0.874922
     35 O7          3.8510   -2.1390   -2.2980 o         1 MOL     -0.728263
     36 O8          4.9460   -2.5680   -4.1100 o         1 MOL     -0.728263
     37 H13         6.2010   -0.1690   -2.8920 hn        1 MOL      0.312747
     38 H14         3.5640    0.4950   -2.1980 h1        1 MOL      0.157716
     39 H15         4.4550   -0.1540   -4.8250 hc        1 MOL      0.094016
     40 H16         2.8570   -0.2120   -4.3180 hc        1 MOL      0.094016
     41 N4          4.7550    3.1230   -3.2240 n         1 MOL     -0.406836
     42 C14         4.6600    4.5490   -3.6320 c3        1 MOL     -0.223823
     43 C15         3.4840    5.3700   -3.1740 c         1 MOL      0.766990
     44 O9          3.5630    6.5740   -3.3870 o         1 MOL     -0.604854
     45 H17         5.5720    2.7720   -2.7560 hn        1 MOL      0.344869
     46 H18         4.7180    4.4580   -4.7210 h1        1 MOL      0.102493
     47 H19         5.5230    5.1360   -3.2920 h1        1 MOL      0.102493
     48 N5          2.4490    4.7470   -2.5930 n         1 MOL     -0.555467
     49 C16         1.1090    5.2960   -2.4340 c3        1 MOL      0.108015
     50 C17         0.5910    5.5670   -1.0270 c         1 MOL      0.564815
     51 O10         0.8180    4.7660   -0.0800 o         1 MOL     -0.483956
     52 C18         0.0460    4.3960   -3.1180 c3        1 MOL     -0.176495
     53 C19         0.2580    4.0830   -4.6240 c         1 MOL      0.636598
     54 N6         -0.0600    2.8920   -5.1130 n         1 MOL     -0.799373
     55 O11         0.5680    4.9480   -5.4300 o         1 MOL     -0.565306
     56 H20         2.5530    3.7380   -2.5640 hn        1 MOL      0.284147
     57 H21         1.1310    6.2400   -2.9900 h1        1 MOL      0.039463
     58 H22        -0.9270    4.8530   -2.9420 hc        1 MOL      0.070555
     59 H23        -0.0650    3.4470   -2.5930 hc        1 MOL      0.070555
     60 H24        -0.3420    2.1370   -4.5060 hn        1 MOL      0.376236
     61 H25         0.2960    2.8380   -6.0510 hn        1 MOL      0.376236
     62 N7          0.0380    6.7380   -0.7970 n         1 MOL     -0.533698
     63 C20        -0.5600    7.1280    0.4890 c3        1 MOL      0.055447
     64 C21        -1.9510    6.5370    0.6550 c         1 MOL      0.463065
     65 O12        -2.4180    5.8090   -0.2750 o         1 MOL     -0.487281
     66 H26        -0.1510    7.3190   -1.6070 hn        1 MOL      0.313377
     67 H27        -0.6780    8.1730    0.7920 h1        1 MOL      0.057095
     68 H28         0.0240    6.6950    1.2960 h1        1 MOL      0.057095
     69 N8         -2.6230    6.7240    1.7750 n         1 MOL     -0.322806
     70 C22        -4.0660    6.3150    1.9800 c3        1 MOL     -0.368714
     71 C23        -4.2300    4.8130    2.2040 c         1 MOL      0.532156
     72 O13        -5.4250    4.3300    2.2750 o         1 MOL     -0.575297
     73 C24        -4.7980    7.0880    3.1230 c3        1 MOL      0.563499
     74 C25        -3.9820    7.2080    4.4410 c3        1 MOL     -0.409184
     75 O14        -5.0870    8.3100    2.5740 oh        1 MOL     -0.630363
     76 H29        -2.1960    7.3140    2.4850 hn        1 MOL      0.239891
     77 H30        -4.6310    6.4850    1.0560 h1        1 MOL      0.188377
     78 H31        -5.7820    6.6850    3.3890 h1        1 MOL      0.029946
     79 H32        -4.2000    8.6880    2.5730 ho        1 MOL      0.354422
     80 H33        -3.4360    8.1470    4.4230 hc        1 MOL      0.096919
     81 H34        -4.7250    7.3010    5.2310 hc        1 MOL      0.096919
     82 H35        -3.4490    6.2560    4.3930 hc        1 MOL      0.096919
     83 N9         -3.1600    4.0190    2.2850 n         1 MOL     -0.287119
     84 C26        -3.1570    2.5810    2.6910 c3        1 MOL     -0.088292
     85 C27        -2.0670    1.8640    1.8970 c         1 MOL      0.576332
     86 O15        -0.9930    2.3950    1.6320 o         1 MOL     -0.472558
     87 C28        -2.9440    2.4580    4.2280 c3        1 MOL      0.072374
     88 C29        -4.1240    3.0630    5.1160 c3        1 MOL     -0.056299
     89 C30        -2.6910    1.0460    4.6610 c3        1 MOL     -0.310178
     90 C31        -5.4390    2.1680    4.9050 c3        1 MOL     -0.114369
     91 H36        -2.2640    4.4730    2.2120 hn        1 MOL      0.222718
     92 H37        -4.1640    2.2360    2.4720 h1        1 MOL      0.133135
     93 H38        -2.0050    2.9550    4.4820 hc        1 MOL      0.015571
     94 H39        -4.2430    4.1370    4.9640 hc        1 MOL      0.026407
     95 H40        -3.9460    2.9490    6.1890 hc        1 MOL      0.026407
     96 H41        -2.9020    0.8850    5.7210 hc        1 MOL      0.096455
     97 H42        -3.2020    0.4220    3.9260 hc        1 MOL      0.096455
     98 H43        -1.6180    0.8920    4.6120 hc        1 MOL      0.096455
     99 H44        -6.1240    2.5700    5.6420 hc        1 MOL      0.027617
    100 H45        -5.8000    2.2950    3.8860 hc        1 MOL      0.027617
    101 H46        -5.3230    1.1020    5.1110 hc        1 MOL      0.027617
    102 N10        -2.4650    0.6990    1.3700 n         1 MOL     -0.578340
    103 C32        -1.6330   -0.2520    0.6680 c3        1 MOL      0.148186
    104 C33        -2.4810   -1.0410   -0.2890 c         1 MOL      0.367693
    105 O16        -2.1320   -2.0840   -0.8560 o         1 MOL     -0.474159
    106 C34        -0.8510   -1.1590    1.6260 c3        1 MOL      0.100573
    107 C35         0.5090   -1.5130    1.0260 c         1 MOL      0.774315
    108 O17         0.8340   -1.2700   -0.1450 o         1 MOL     -0.753206
    109 O18         1.3620   -1.9380    1.8120 o         1 MOL     -0.753206
    110 H47        -3.3750    0.3780    1.7010 hn        1 MOL      0.314477
    111 H48        -0.8810    0.3450    0.1530 h1        1 MOL      0.110804
    112 H49        -1.4080   -2.0620    1.8690 hc        1 MOL     -0.059233
    113 H50        -0.6440   -0.6660    2.5770 hc        1 MOL     -0.059233
    114 N11        -3.7010   -0.6090   -0.5200 n         1 MOL     -0.278750
    115 C36        -4.6730   -1.2490   -1.4270 c3        1 MOL      0.176898
    116 C37        -5.0400   -2.6550   -0.9540 c         1 MOL      0.101586
    117 O19        -5.5930   -2.6710    0.2090 o         1 MOL     -0.502925
    118 C38        -6.0170   -0.5470   -1.3050 c3        1 MOL     -0.171595
    119 C39        -7.1600   -1.0470   -2.2150 ca        1 MOL      0.102100
    120 C40        -8.1570   -2.0000   -1.8520 ca        1 MOL     -0.206525
    121 C41        -7.0570   -0.8210   -3.6090 ca        1 MOL     -0.206525
    122 C42        -9.1250   -2.4110   -2.6900 ca        1 MOL     -0.054445
    123 C43        -7.9030   -1.4380   -4.5210 ca        1 MOL     -0.054445
    124 C44        -8.9610   -2.1850   -4.0500 ca        1 MOL     -0.150674
    125 H51        -4.1020    0.2270   -0.1170 hn        1 MOL      0.181074
    126 H52        -4.4060   -1.2210   -2.4870 h1        1 MOL      0.004493
    127 H53        -5.8190    0.4500   -1.6850 hc        1 MOL      0.081710
    128 H54        -6.3570   -0.3910   -0.2770 hc        1 MOL      0.081710
    129 H55        -8.1890   -2.4080   -0.8520 ha        1 MOL      0.135509
    130 H56        -6.1690   -0.4410   -4.0830 ha        1 MOL      0.135509
    131 H57        -9.8460   -3.1180   -2.3080 ha        1 MOL      0.092002
    132 H58        -7.7920   -1.3300   -5.5930 ha        1 MOL      0.092002
    133 H59        -9.6110   -2.7070   -4.7400 ha        1 MOL      0.093191
    134 N12        -4.9540   -3.6950   -1.7670 n         1 MOL      0.176496
    135 C45        -5.3110   -5.0990   -1.3900 c3        1 MOL     -0.121396
    136 C46        -4.3310   -5.7750   -0.4250 c         1 MOL      0.450907
    137 O20        -4.6130   -6.8450    0.0960 o         1 MOL     -0.546104
    138 C47        -5.4170   -5.8800   -2.7280 c3        1 MOL      0.002479
    139 C48        -4.5230   -5.0890   -3.6850 c3        1 MOL     -0.123771
    140 C49        -4.3770   -3.6820   -3.1050 c3        1 MOL      0.062624
    141 H60        -6.2880   -5.0880   -0.8990 h1        1 MOL      0.089356
    142 H61        -5.0380   -6.9080   -2.6440 hc        1 MOL      0.033737
    143 H62        -6.4790   -5.8980   -2.9610 hc        1 MOL      0.033737
    144 H63        -3.4780   -5.3490   -3.8660 hc        1 MOL      0.036275
    145 H64        -5.1490   -4.9080   -4.5560 hc        1 MOL      0.036275
    146 H65        -3.2940   -3.5360   -2.9870 h1        1 MOL      0.026833
    147 H66        -4.7570   -2.9030   -3.7650 h1        1 MOL      0.026833
    148 N13        -3.1700   -5.1450   -0.1280 n         1 MOL     -0.170631
    149 C50        -2.1580   -5.6430    0.7720 c3        1 MOL     -0.285817
    150 C51        -2.4200   -5.5470    2.2620 c         1 MOL      0.427518
    151 O21        -1.7980   -6.2070    3.1270 o         1 MOL     -0.530775
    152 C52        -0.8200   -4.9800    0.4680 c3        1 MOL      0.225253
    153 C53         0.1040   -5.6940   -0.5370 c3        1 MOL     -0.343449
    154 C54         1.4500   -4.9580   -0.6050 c         1 MOL      0.796081
    155 O22         1.7290   -4.2020   -1.5070 o         1 MOL     -0.752358
    156 O23         2.2080   -4.9350    0.3740 o         1 MOL     -0.752358
    157 H67        -2.9120   -4.3550   -0.7090 hn        1 MOL      0.248203
    158 H68        -1.9720   -6.6970    0.5680 h1        1 MOL      0.149822
    159 H69        -0.1640   -5.0700    1.3410 hc        1 MOL      0.003539
    160 H70        -0.7670   -3.9110    0.3050 hc        1 MOL      0.003539
    161 H71        -0.3720   -5.7370   -1.5190 hc        1 MOL      0.046920
    162 H72         0.4330   -6.6720   -0.1660 hc        1 MOL      0.046920
    163 N14        -3.4140   -4.7800    2.6680 n         1 MOL     -0.037879
    164 C55        -3.8020   -4.5310    4.0520 c3        1 MOL     -0.315775
    165 H73        -4.0520   -5.4760    4.5340 h1        1 MOL      0.107321
    166 H74        -2.9740   -4.0610    4.5820 h1        1 MOL      0.107321
    167 H75        -4.6690   -3.8720    4.0730 h1        1 MOL      0.107321
    168 H76        -4.0120   -4.3730    1.9610 hn        1 MOL      0.140212
    169 Ca1         3.2860   -2.4600    0.1180 Ca        1 MOL      1.758340
    170 O24         3.3770    0.1030    0.2340 oh        1 MOL     -0.826819
    171 H77         4.2600    0.2840    0.5560 ho        1 MOL      0.408329
    172 H78         2.9290    0.9390    0.2590 ho        1 MOL      0.408329
    173 O25         5.4120   -4.1110   -0.8360 oh        1 MOL     -0.826819
    174 H79         5.8460   -4.8910   -0.4950 ho        1 MOL      0.408329
    175 H80         6.0270   -3.7530   -1.4710 ho        1 MOL      0.408329
    176 O26         3.9100   -3.7590    2.4810 oh        1 MOL     -0.826819
    177 H81         4.8420   -3.8600    2.6730 ho        1 MOL      0.408329
    178 H82         3.4680   -4.1360    3.2430 ho        1 MOL      0.408329
@<TRIPOS>BOND
     1    1    2 1   
     2    1    4 1   
     3    1    5 1   
     4    1    6 1   
     5    2    3 2   
     6    2    7 1   
     7    7    8 1   
     8    7   15 1   
     9    8    9 1   
    10    8   11 1   
    11    8   16 1   
    12    9   10 2   
    13    9   19 1   
    14   11   12 1   
    15   11   17 1   
    16   11   18 1   
    17   12   13 1   
    18   12   14 1   
    19   19   20 1   
    20   19   24 1   
    21   20   21 1   
    22   20   23 1   
    23   20   25 1   
    24   21   22 2   
    25   21   29 1   
    26   23   26 1   
    27   23   27 1   
    28   23   28 1   
    29   29   30 1   
    30   29   37 1   
    31   30   31 1   
    32   30   33 1   
    33   30   38 1   
    34   31   32 2   
    35   31   41 1   
    36   33   34 1   
    37   33   39 1   
    38   33   40 1   
    39   34   35 1   
    40   34   36 1   
    41   41   42 1   
    42   41   45 1   
    43   42   43 1   
    44   42   46 1   
    45   42   47 1   
    46   43   44 2   
    47   43   48 1   
    48   48   49 1   
    49   48   56 1   
    50   49   50 1   
    51   49   52 1   
    52   49   57 1   
    53   50   51 2   
    54   50   62 1   
    55   52   53 1   
    56   52   58 1   
    57   52   59 1   
    58   53   54 1   
    59   53   55 2   
    60   54   60 1   
    61   54   61 1   
    62   62   63 1   
    63   62   66 1   
    64   63   64 1   
    65   63   67 1   
    66   63   68 1   
    67   64   65 2   
    68   64   69 1   
    69   69   70 1   
    70   69   76 1   
    71   70   71 1   
    72   70   73 1   
    73   70   77 1   
    74   71   72 2   
    75   71   83 1   
    76   73   74 1   
    77   73   75 1   
    78   73   78 1   
    79   74   80 1   
    80   74   81 1   
    81   74   82 1   
    82   75   79 1   
    83   83   84 1   
    84   83   91 1   
    85   84   85 1   
    86   84   87 1   
    87   84   92 1   
    88   85   86 2   
    89   85  102 1   
    90   87   88 1   
    91   87   89 1   
    92   87   93 1   
    93   88   90 1   
    94   88   94 1   
    95   88   95 1   
    96   89   96 1   
    97   89   97 1   
    98   89   98 1   
    99   90   99 1   
   100   90  100 1   
   101   90  101 1   
   102  102  103 1   
   103  102  110 1   
   104  103  104 1   
   105  103  106 1   
   106  103  111 1   
   107  104  105 2   
   108  104  114 1   
   109  106  107 1   
   110  106  112 1   
   111  106  113 1   
   112  107  108 1   
   113  107  109 1   
   114  114  115 1   
   115  114  125 1   
   116  115  116 1   
   117  115  118 1   
   118  115  126 1   
   119  116  117 2   
   120  116  134 1   
   121  118  119 1   
   122  118  127 1   
   123  118  128 1   
   124  119  120 ar  
   125  119  121 ar  
   126  120  122 ar  
   127  120  129 1   
   128  121  123 ar  
   129  121  130 1   
   130  122  124 ar  
   131  122  131 1   
   132  123  124 ar  
   133  123  132 1   
   134  124  133 1   
   135  134  135 1   
   136  134  140 1   
   137  135  136 1   
   138  135  138 1   
   139  135  141 1   
   140  136  137 2   
   141  136  148 1   
   142  138  139 1   
   143  138  142 1   
   144  138  143 1   
   145  139  140 1   
   146  139  144 1   
   147  139  145 1   
   148  140  146 1   
   149  140  147 1   
   150  148  149 1   
   151  148  157 1   
   152  149  150 1   
   153  149  152 1   
   154  149  158 1   
   155  150  151 2   
   156  150  163 1   
   157  152  153 1   
   158  152  159 1   
   159  152  160 1   
   160  153  154 1   
   161  153  161 1   
   162  153  162 1   
   163  154  155 1   
   164  154  156 1   
   165  163  164 1   
   166  163  168 1   
   167  164  165 1   
   168  164  166 1   
   169  164  167 1   
   170  170  171 1   
   171  170  172 1   
   172  173  174 1   
   173  173  175 1   
   174  176  177 1   
   175  176  178 1   
@<TRIPOS>SUBSTRUCTURE
     1 MOL         1 TEMP              0 ****  ****    0 ROOT
