@<TRIPOS>MOLECULE
MOL
  181   177     1     0     0
SMALL
resp


@<TRIPOS>ATOM
      1 C1         11.0900    6.3720   -1.7450 c3        1 MOL     -0.404392
      2 C2         11.3000    5.3170   -0.6430 c         1 MOL      0.779381
      3 O1         11.4010    5.6750    0.5130 o         1 MOL     -0.625165
      4 H1         10.3590    6.0040   -2.4650 hc        1 MOL      0.112415
      5 H2         10.7260    7.2970   -1.2990 hc        1 MOL      0.112415
      6 H3         12.0360    6.5600   -2.2530 hc        1 MOL      0.112415
      7 N1         11.4300    4.0190   -0.8750 n         1 MOL     -0.591584
      8 C3         11.2380    3.2750   -2.1070 c3        1 MOL      0.026142
      9 C4         12.0760    1.9490   -2.3710 c         1 MOL      0.538900
     10 O2         12.2230    1.4760   -3.4820 o         1 MOL     -0.539146
     11 C5          9.6900    3.0880   -2.3550 c3        1 MOL     -0.142413
     12 C6          9.0340    2.2860   -1.1900 c         1 MOL      0.713124
     13 O3          7.8200    2.4790   -0.9300 o         1 MOL     -0.689453
     14 O4          9.7790    1.5720   -0.4780 o         1 MOL     -0.689453
     15 H4         11.7430    3.5010   -0.0550 hn        1 MOL      0.267040
     16 H5         11.6100    3.8700   -2.9450 h1        1 MOL      0.050190
     17 H6          9.5260    2.6970   -3.3580 hc        1 MOL      0.056912
     18 H7          9.2150    4.0670   -2.2990 hc        1 MOL      0.056912
     19 N2         12.5930    1.3310   -1.2940 n         1 MOL     -0.315247
     20 C7         13.4540    0.1400   -1.2870 c3        1 MOL      0.000298
     21 C8         12.6510   -1.1110   -0.8850 c         1 MOL      0.440983
     22 O5         13.3360   -2.1390   -0.8040 o         1 MOL     -0.536221
     23 C9         14.5880    0.3710   -0.2670 c3        1 MOL     -0.101229
     24 H8         12.4920    1.7270   -0.3700 hn        1 MOL      0.222877
     25 H9         13.9620   -0.1070   -2.2210 h1        1 MOL      0.096310
     26 H10        15.0850    1.3220   -0.4470 hc        1 MOL      0.042882
     27 H11        14.2390    0.4680    0.7630 hc        1 MOL      0.042882
     28 H12        15.3280   -0.4220   -0.2380 hc        1 MOL      0.042882
     29 N3         11.3600   -1.0150   -0.4650 n         1 MOL      0.044428
     30 C10        10.6200   -2.2510   -0.2670 c3        1 MOL     -0.477120
     31 C11         9.1210   -2.2320   -0.6680 c         1 MOL      0.716090
     32 O6          8.5340   -1.2160   -0.7990 o         1 MOL     -0.506563
     33 C12        10.8010   -2.7290    1.1820 c3        1 MOL     -0.003412
     34 C13        10.7870   -1.7210    2.3160 c         1 MOL      0.598936
     35 O7         10.0610   -0.7250    2.1800 o         1 MOL     -0.681504
     36 O8         11.4290   -1.9930    3.3400 o         1 MOL     -0.681504
     37 H13        10.8870   -0.1230   -0.5510 hn        1 MOL      0.037143
     38 H14        11.0850   -2.9830   -0.9280 h1        1 MOL      0.124796
     39 H15        11.7740   -3.2150    1.2660 hc        1 MOL      0.037593
     40 H16        10.1080   -3.4960    1.5200 hc        1 MOL      0.037593
     41 N4          8.6140   -3.4290   -1.0240 n         1 MOL     -0.458187
     42 C14         7.2760   -3.7260   -1.4580 c3        1 MOL     -0.130968
     43 C15         6.1480   -3.2500   -0.5070 c         1 MOL      0.702300
     44 O9          6.3440   -3.2580    0.7120 o         1 MOL     -0.574902
     45 H17         9.2340   -4.1990   -0.8540 hn        1 MOL      0.304758
     46 H18         7.1450   -4.8040   -1.5850 h1        1 MOL      0.099951
     47 H19         7.1300   -3.3490   -2.4680 h1        1 MOL      0.099951
     48 N5          5.0440   -2.7450   -1.1430 n         1 MOL     -0.818347
     49 C16         3.9090   -2.0140   -0.4270 c3        1 MOL      0.559701
     50 C17         2.5910   -2.6640   -0.8490 c         1 MOL      0.558980
     51 O10         2.5730   -3.3700   -1.8390 o         1 MOL     -0.517803
     52 C18         3.8400   -0.4920   -0.7430 c3        1 MOL     -0.450134
     53 C19         5.1710    0.2640   -0.7510 c         1 MOL      0.876675
     54 N6          5.4600    1.1060   -1.6990 n         1 MOL     -0.829082
     55 O11         5.9410    0.1660    0.1350 o         1 MOL     -0.714483
     56 H20         5.1430   -2.7000   -2.1460 hn        1 MOL      0.367873
     57 H21         3.9940   -2.0590    0.6510 h1        1 MOL     -0.059953
     58 H22         3.1910    0.0360   -0.0460 hc        1 MOL      0.104962
     59 H23         3.4330   -0.4130   -1.7450 hc        1 MOL      0.104962
     60 H24         4.7670    1.2830   -2.4100 hn        1 MOL      0.378323
     61 H25         6.1720    1.7270   -1.3520 hn        1 MOL      0.378323
     62 N7          1.4750   -2.4140   -0.0550 n         1 MOL     -0.687430
     63 C20         0.1410   -2.9420   -0.3410 c3        1 MOL      0.304746
     64 C21        -0.6740   -3.2540    0.9580 c         1 MOL      0.535258
     65 O12        -0.0430   -3.3980    2.0080 o         1 MOL     -0.574464
     66 H26         1.5310   -1.7910    0.7500 hn        1 MOL      0.353553
     67 H27         0.1440   -3.7180   -1.1070 h1        1 MOL      0.017438
     68 H28        -0.4130   -2.0900   -0.7540 h1        1 MOL      0.017438
     69 N8         -1.9720   -3.6300    1.0410 n         1 MOL     -0.490408
     70 C22        -3.0300   -3.7800    0.0070 c3        1 MOL     -0.006945
     71 C23        -4.1650   -2.7400    0.1780 c         1 MOL      0.421456
     72 O13        -5.1920   -2.7500   -0.4930 o         1 MOL     -0.522465
     73 C24        -3.5880   -5.1990   -0.1450 c3        1 MOL      0.387708
     74 C25        -2.5140   -6.0910   -0.8170 c3        1 MOL     -0.360145
     75 O14        -3.7790   -5.7400    1.1510 oh        1 MOL     -0.618408
     76 H29        -2.2170   -3.9530    1.9680 hn        1 MOL      0.338615
     77 H30        -2.5730   -3.5720   -0.9680 h1        1 MOL      0.072267
     78 H31        -4.4880   -5.1530   -0.7520 h1        1 MOL     -0.003942
     79 H32        -4.2040   -6.5900    1.0200 ho        1 MOL      0.390964
     80 H33        -2.1820   -5.6450   -1.7470 hc        1 MOL      0.083762
     81 H34        -1.6160   -6.2240   -0.2190 hc        1 MOL      0.083762
     82 H35        -2.9220   -7.0730   -1.0610 hc        1 MOL      0.083762
     83 N9         -3.9180   -1.6870    0.9760 n         1 MOL     -0.387291
     84 C26        -4.9140   -0.7500    1.4900 c3        1 MOL      0.014988
     85 C27        -4.4420    0.7080    1.2750 c         1 MOL      0.497282
     86 O15        -4.0920    1.4810    2.2170 o         1 MOL     -0.535583
     87 C28        -5.2950   -1.0230    3.0100 c3        1 MOL     -0.110886
     88 C29        -5.5940   -2.5520    3.2490 c3        1 MOL     -0.037481
     89 C30        -6.5460   -0.1600    3.3530 c3        1 MOL      0.015351
     90 C31        -5.8900   -2.9490    4.6980 c3        1 MOL     -0.177098
     91 H36        -3.0410   -1.6750    1.4620 hn        1 MOL      0.282734
     92 H37        -5.8580   -0.9080    0.9680 h1        1 MOL      0.207992
     93 H38        -4.5210   -0.7350    3.7300 hc        1 MOL      0.070141
     94 H39        -4.7310   -3.1670    2.9870 hc        1 MOL      0.033460
     95 H40        -6.3590   -2.9800    2.6070 hc        1 MOL      0.033460
     96 H41        -6.9010   -0.2080    4.3920 hc        1 MOL      0.023543
     97 H42        -6.3120    0.9000    3.3420 hc        1 MOL      0.023543
     98 H43        -7.4010   -0.2840    2.6860 hc        1 MOL      0.023543
     99 H44        -6.8860   -2.5950    4.9810 hc        1 MOL      0.035543
    100 H45        -5.9050   -4.0210    4.8870 hc        1 MOL      0.035543
    101 H46        -5.1750   -2.4910    5.3790 hc        1 MOL      0.035543
    102 N10        -4.4220    1.2270    0.0330 n         1 MOL     -0.446717
    103 C32        -4.8560    0.6160   -1.2680 c3        1 MOL     -0.094360
    104 C33        -6.4190    0.6130   -1.3920 c         1 MOL      0.610246
    105 O16        -6.9630    1.6970   -1.3120 o         1 MOL     -0.526680
    106 C34        -4.1670    1.3180   -2.4870 c3        1 MOL     -0.262644
    107 C35        -2.6880    1.5330   -2.2310 c         1 MOL      0.770287
    108 O17        -2.2240    2.6910   -2.2050 o         1 MOL     -0.744557
    109 O18        -1.9370    0.5350   -2.1520 o         1 MOL     -0.744557
    110 H47        -4.0610    2.1690   -0.0660 hn        1 MOL      0.350422
    111 H48        -4.6050   -0.4340   -1.4080 h1        1 MOL      0.081234
    112 H49        -4.6250    2.3010   -2.6020 hc        1 MOL      0.060051
    113 H50        -4.2450    0.8080   -3.4440 hc        1 MOL      0.060051
    114 N11        -7.0900   -0.5520   -1.6550 n         1 MOL     -0.548423
    115 C36        -8.5720   -0.6190   -1.7000 c3        1 MOL      0.148387
    116 C37        -9.1330   -0.9080   -0.3350 c         1 MOL      0.485141
    117 O19        -8.4940   -1.6210    0.4080 o         1 MOL     -0.563043
    118 C38        -9.0040   -1.7340   -2.6570 c3        1 MOL     -0.001442
    119 C39       -10.5050   -1.9190   -2.8650 ca        1 MOL      0.041592
    120 C40       -11.2570   -1.1460   -3.7740 ca        1 MOL     -0.214520
    121 C41       -11.1320   -2.9710   -2.0990 ca        1 MOL     -0.214520
    122 C42       -12.6900   -1.3220   -3.9400 ca        1 MOL     -0.006625
    123 C43       -12.5110   -3.1460   -2.2480 ca        1 MOL     -0.006625
    124 C44       -13.3020   -2.3190   -3.1080 ca        1 MOL     -0.282891
    125 H51        -6.5320   -1.4000   -1.7500 hn        1 MOL      0.306813
    126 H52        -8.8510    0.3470   -2.1000 h1        1 MOL      0.037967
    127 H53        -8.5900   -2.6710   -2.2880 hc        1 MOL      0.031847
    128 H54        -8.4100   -1.6960   -3.5810 hc        1 MOL      0.031847
    129 H55       -10.7940   -0.4200   -4.4360 ha        1 MOL      0.142023
    130 H56       -10.6000   -3.4630   -1.2930 ha        1 MOL      0.142023
    131 H57       -13.2320   -0.8950   -4.7770 ha        1 MOL      0.092809
    132 H58       -12.8310   -3.9520   -1.6070 ha        1 MOL      0.092809
    133 H59       -14.3640   -2.3740   -3.2610 ha        1 MOL      0.139013
    134 N12       -10.2970   -0.3530   -0.0320 n         1 MOL     -0.180640
    135 C45       -11.1440    0.4890   -0.8290 c3        1 MOL      0.141744
    136 C46       -10.8300    1.9770   -0.7350 c         1 MOL      0.594362
    137 O20       -10.5000    2.5370   -1.7870 o         1 MOL     -0.572788
    138 C47       -12.6310    0.3100   -0.4240 c3        1 MOL     -0.243026
    139 C48       -12.4610   -0.4150    0.9160 c3        1 MOL      0.023981
    140 C49       -11.0070   -0.8510    1.0940 c3        1 MOL     -0.085397
    141 H60       -11.1420    0.3620   -1.9110 h1        1 MOL     -0.001909
    142 H61       -13.0920    1.2900   -0.3640 hc        1 MOL      0.089358
    143 H62       -13.1870   -0.3200   -1.1250 hc        1 MOL      0.089358
    144 H63       -12.6530    0.1800    1.8070 hc        1 MOL      0.008843
    145 H64       -13.1330   -1.2740    1.0300 hc        1 MOL      0.008843
    146 H65       -10.6630   -0.5850    2.0990 h1        1 MOL      0.072464
    147 H66       -11.0360   -1.9360    1.1410 h1        1 MOL      0.072464
    148 N13       -10.7760    2.5700    0.4120 n         1 MOL     -0.610073
    149 C50       -10.0450    3.8430    0.4750 c3        1 MOL      0.418814
    150 C51       -11.0290    4.9390   -0.0290 c         1 MOL      0.309127
    151 O21       -12.2940    4.7800    0.1150 o         1 MOL     -0.558749
    152 C52        -9.6710    4.0280    1.9560 c3        1 MOL     -0.293740
    153 C53        -8.5200    3.1270    2.3850 c3        1 MOL      0.007564
    154 C54        -8.3190    3.1200    3.8710 c         1 MOL      0.707970
    155 O22        -7.1560    3.3950    4.2510 o         1 MOL     -0.737536
    156 O23        -9.2120    2.7470    4.6470 o         1 MOL     -0.737536
    157 H67       -10.9170    2.1080    1.3010 hn        1 MOL      0.364084
    158 H68        -9.1320    3.8020   -0.1170 h1        1 MOL      0.030003
    159 H69       -10.5490    3.8560    2.5740 hc        1 MOL      0.056008
    160 H70        -9.2520    5.0370    2.0230 hc        1 MOL      0.056008
    161 H71        -7.5790    3.4710    1.9550 hc        1 MOL     -0.006440
    162 H72        -8.7660    2.1340    2.0040 hc        1 MOL     -0.006440
    163 N14       -10.6570    6.0920   -0.5620 n         1 MOL     -0.292092
    164 C55        -9.2620    6.5040   -1.0010 c3        1 MOL     -0.216605
    165 H73        -9.1280    6.2620   -2.0560 h1        1 MOL      0.109004
    166 H74        -9.1380    7.5780   -0.8570 h1        1 MOL      0.109004
    167 H75        -8.5200    5.9690   -0.4090 h1        1 MOL      0.109004
    168 H76       -11.4280    6.7440   -0.6200 hn        1 MOL      0.259735
    169 Ca1         8.1370    0.6870    1.3830 Ca        1 MOL      1.733436
    170 O24         8.5740    0.9330    4.1020 oh        1 MOL     -0.856808
    171 H77         9.1520    1.5340    4.5660 ho        1 MOL      0.426398
    172 H78         8.6550    0.1070    4.5750 ho        1 MOL      0.426398
    173 O25         6.4280    2.4540    2.5140 oh        1 MOL     -0.856808
    174 H79         6.4500    2.7920    3.4060 ho        1 MOL      0.426398
    175 H80         5.7180    2.9450    2.0880 ho        1 MOL      0.426398
    176 O26         9.6780    2.8890    2.0670 oh        1 MOL     -0.856808
    177 H81        10.4760    2.8460    1.5580 ho        1 MOL      0.426398
    178 H82         9.7420    3.7060    2.5700 ho        1 MOL      0.426398
    179 O27         6.8410   -1.3830    2.5520 oh        1 MOL     -0.856808
    180 H83         6.4060   -2.0610    2.0370 ho        1 MOL      0.426398
    181 H84         6.5260   -1.5180    3.4480 ho        1 MOL      0.426398
@<TRIPOS>BOND
     1    1    2 1   
     2    1    4 1   
     3    1    5 1   
     4    1    6 1   
     5    2    3 2   
     6    2    7 1   
     7    7    8 1   
     8    7   15 1   
     9    8    9 1   
    10    8   11 1   
    11    8   16 1   
    12    9   10 2   
    13    9   19 1   
    14   11   12 1   
    15   11   17 1   
    16   11   18 1   
    17   12   13 1   
    18   12   14 1   
    19   19   20 1   
    20   19   24 1   
    21   20   21 1   
    22   20   23 1   
    23   20   25 1   
    24   21   22 2   
    25   21   29 1   
    26   23   26 1   
    27   23   27 1   
    28   23   28 1   
    29   29   30 1   
    30   29   37 1   
    31   30   31 1   
    32   30   33 1   
    33   30   38 1   
    34   31   32 2   
    35   31   41 1   
    36   33   34 1   
    37   33   39 1   
    38   33   40 1   
    39   34   35 1   
    40   34   36 1   
    41   41   42 1   
    42   41   45 1   
    43   42   43 1   
    44   42   46 1   
    45   42   47 1   
    46   43   44 2   
    47   43   48 1   
    48   48   49 1   
    49   48   56 1   
    50   49   50 1   
    51   49   52 1   
    52   49   57 1   
    53   50   51 2   
    54   50   62 1   
    55   52   53 1   
    56   52   58 1   
    57   52   59 1   
    58   53   54 1   
    59   53   55 2   
    60   54   60 1   
    61   54   61 1   
    62   62   63 1   
    63   62   66 1   
    64   63   64 1   
    65   63   67 1   
    66   63   68 1   
    67   64   65 2   
    68   64   69 1   
    69   69   70 1   
    70   69   76 1   
    71   70   71 1   
    72   70   73 1   
    73   70   77 1   
    74   71   72 2   
    75   71   83 1   
    76   73   74 1   
    77   73   75 1   
    78   73   78 1   
    79   74   80 1   
    80   74   81 1   
    81   74   82 1   
    82   75   79 1   
    83   83   84 1   
    84   83   91 1   
    85   84   85 1   
    86   84   87 1   
    87   84   92 1   
    88   85   86 2   
    89   85  102 1   
    90   87   88 1   
    91   87   89 1   
    92   87   93 1   
    93   88   90 1   
    94   88   94 1   
    95   88   95 1   
    96   89   96 1   
    97   89   97 1   
    98   89   98 1   
    99   90   99 1   
   100   90  100 1   
   101   90  101 1   
   102  102  103 1   
   103  102  110 1   
   104  103  104 1   
   105  103  106 1   
   106  103  111 1   
   107  104  105 2   
   108  104  114 1   
   109  106  107 1   
   110  106  112 1   
   111  106  113 1   
   112  107  108 1   
   113  107  109 1   
   114  114  115 1   
   115  114  125 1   
   116  115  116 1   
   117  115  118 1   
   118  115  126 1   
   119  116  117 2   
   120  116  134 1   
   121  118  119 1   
   122  118  127 1   
   123  118  128 1   
   124  119  120 ar  
   125  119  121 ar  
   126  120  122 ar  
   127  120  129 1   
   128  121  123 ar  
   129  121  130 1   
   130  122  124 ar  
   131  122  131 1   
   132  123  124 ar  
   133  123  132 1   
   134  124  133 1   
   135  134  135 1   
   136  134  140 1   
   137  135  136 1   
   138  135  138 1   
   139  135  141 1   
   140  136  137 2   
   141  136  148 1   
   142  138  139 1   
   143  138  142 1   
   144  138  143 1   
   145  139  140 1   
   146  139  144 1   
   147  139  145 1   
   148  140  146 1   
   149  140  147 1   
   150  148  149 1   
   151  148  157 1   
   152  149  150 1   
   153  149  152 1   
   154  149  158 1   
   155  150  151 2   
   156  150  163 1   
   157  152  153 1   
   158  152  159 1   
   159  152  160 1   
   160  153  154 1   
   161  153  161 1   
   162  153  162 1   
   163  154  155 1   
   164  154  156 1   
   165  163  164 1   
   166  163  168 1   
   167  164  165 1   
   168  164  166 1   
   169  164  167 1   
   170  170  171 1   
   171  170  172 1   
   172  173  174 1   
   173  173  175 1   
   174  176  177 1   
   175  176  178 1   
   176  179  180 1   
   177  179  181 1   
@<TRIPOS>SUBSTRUCTURE
     1 MOL         1 TEMP              0 ****  ****    0 ROOT
