@<TRIPOS>MOLECULE
MOL
  189   185     1     0     0
SMALL
resp


@<TRIPOS>ATOM
      1 C1          4.4560    4.8980   -2.8200 c3        1 MOL     -0.393752
      2 C2          5.1160    3.7420   -2.0300 c         1 MOL      0.717929
      3 O1          4.4710    3.3200   -1.0390 o         1 MOL     -0.565620
      4 H1          5.1700    5.3010   -3.5380 hc        1 MOL      0.097057
      5 H2          3.5800    4.5250   -3.3490 hc        1 MOL      0.097057
      6 H3          4.1550    5.6860   -2.1290 hc        1 MOL      0.097057
      7 N1          6.3170    3.3150   -2.4650 n         1 MOL     -0.701359
      8 C3          7.0490    2.1480   -1.9810 c3        1 MOL      0.209469
      9 C4          6.1390    0.9400   -1.8820 c         1 MOL      0.306330
     10 O2          5.6810    0.5070   -0.8070 o         1 MOL     -0.452841
     11 C5          7.9170    2.4770   -0.7330 c3        1 MOL     -0.220442
     12 C6          7.4510    3.3390    0.4610 c         1 MOL      0.827688
     13 O3          6.4140    3.0950    1.1100 o         1 MOL     -0.747602
     14 O4          8.1930    4.2540    0.8430 o         1 MOL     -0.747602
     15 H4          6.7360    3.8720   -3.1860 hn        1 MOL      0.359849
     16 H5          7.7700    1.9030   -2.7620 h1        1 MOL      0.044989
     17 H6          8.8980    2.8140   -1.0890 hc        1 MOL      0.042946
     18 H7          8.2060    1.5220   -0.2870 hc        1 MOL      0.042946
     19 N2          5.7580    0.3400   -2.9700 n         1 MOL     -0.326935
     20 C7          4.9880   -0.9420   -3.2430 c3        1 MOL      0.048044
     21 C8          5.7040   -2.1540   -2.6190 c         1 MOL      0.369269
     22 O5          6.1480   -3.0000   -3.3680 o         1 MOL     -0.549662
     23 C9          3.4450   -0.9220   -2.8890 c3        1 MOL      0.249903
     24 C10         2.6040   -2.1420   -3.2020 c3        1 MOL      0.157800
     25 C11         2.8860    0.3390   -3.5100 c3        1 MOL     -0.068327
     26 C12         2.7790   -2.6680   -4.6320 c3        1 MOL     -0.577174
     27 H8          5.9410    0.9180   -3.7790 hn        1 MOL      0.228592
     28 H9          5.0500   -1.0590   -4.3230 h1        1 MOL      0.021581
     29 H10         3.3720   -0.7840   -1.8030 hc        1 MOL     -0.199595
     30 H11         1.5860   -1.8030   -3.0020 hc        1 MOL      0.029278
     31 H12         2.8260   -2.8920   -2.4380 hc        1 MOL      0.029278
     32 H13         2.8880    0.3760   -4.6010 hc        1 MOL     -0.000006
     33 H14         1.8550    0.5780   -3.2810 hc        1 MOL     -0.000006
     34 H15         3.4280    1.2360   -3.1860 hc        1 MOL     -0.000006
     35 H16         2.5220   -1.7750   -5.2030 hc        1 MOL      0.133124
     36 H17         3.7740   -3.1070   -4.7360 hc        1 MOL      0.133124
     37 H18         1.9820   -3.3930   -4.7690 hc        1 MOL      0.133124
     38 N3          5.8390   -2.2470   -1.3080 n         1 MOL     -0.062055
     39 C13         6.5520   -3.2480   -0.4900 c3        1 MOL     -0.030225
     40 C14         5.7820   -4.5650   -0.3040 c         1 MOL      0.579024
     41 O6          6.2550   -5.6480   -0.4590 o         1 MOL     -0.604649
     42 C15         7.0850   -2.6710    0.8030 c3        1 MOL     -0.115243
     43 C16         8.1780   -1.5840    0.6230 c         1 MOL      0.770596
     44 O7          8.9970   -1.7550   -0.2830 o         1 MOL     -0.718861
     45 O8          8.2310   -0.6780    1.4280 o         1 MOL     -0.718861
     46 H19         5.7120   -1.4440   -0.7200 hn        1 MOL      0.192886
     47 H20         7.4200   -3.6200   -1.0370 h1        1 MOL      0.035745
     48 H21         7.5800   -3.5440    1.2180 hc        1 MOL      0.019593
     49 H22         6.2530   -2.2730    1.3880 hc        1 MOL      0.019593
     50 N4          4.5410   -4.5870    0.0570 n         1 MOL     -0.528256
     51 C17         3.7520   -3.5400    0.5870 c3        1 MOL      0.222698
     52 C18         2.5280   -4.1310    1.3070 c         1 MOL      0.439679
     53 O9          2.1060   -5.1890    0.9090 o         1 MOL     -0.538721
     54 H23         4.1650   -5.5260    0.0070 hn        1 MOL      0.286061
     55 H24         3.4970   -2.8130   -0.1840 h1        1 MOL      0.022017
     56 H25         4.3540   -3.0350    1.3360 h1        1 MOL      0.022017
     57 N5          1.9600   -3.4440    2.2830 n         1 MOL     -0.325483
     58 C19         2.3590   -2.2720    3.0020 c3        1 MOL     -0.035822
     59 C20         2.4430   -1.0800    2.0520 c         1 MOL      0.362514
     60 O10         3.5050   -0.6950    1.7260 o         1 MOL     -0.538448
     61 C21         3.6130   -2.5240    3.9050 c3        1 MOL     -0.300050
     62 C22         4.2470   -1.2550    4.6040 c         1 MOL      0.698065
     63 O11         5.4590   -1.1750    4.8480 o         1 MOL     -0.667761
     64 O12         3.5430   -0.2710    4.9320 o         1 MOL     -0.667761
     65 H26         1.1300   -3.9030    2.6300 hn        1 MOL      0.250766
     66 H27         1.6040   -2.0270    3.7470 h1        1 MOL      0.097513
     67 H28         4.3260   -3.2010    3.4500 hc        1 MOL      0.076069
     68 H29         3.1600   -3.1530    4.6710 hc        1 MOL      0.076069
     69 N6          1.3810   -0.6790    1.4000 n         1 MOL      0.045884
     70 C23        -0.0200   -1.1200    1.6780 c3        1 MOL     -0.260132
     71 C24        -0.4030   -2.1850    0.5670 c         1 MOL      0.354188
     72 O13         0.4340   -2.5550   -0.2350 o         1 MOL     -0.418463
     73 H30         1.5320    0.0960    0.7750 hn        1 MOL      0.109214
     74 H31        -0.6410   -0.2190    1.6830 h1        1 MOL      0.086357
     75 H32        -0.0720   -1.6450    2.6250 h1        1 MOL      0.086357
     76 N7         -1.6140   -2.7280    0.6900 n         1 MOL     -0.205207
     77 C25        -2.1520   -3.8870   -0.0370 c3        1 MOL     -0.075293
     78 C26        -2.6710   -3.6580   -1.5130 c         1 MOL      0.313405
     79 O14        -2.5970   -4.5530   -2.3490 o         1 MOL     -0.486028
     80 C27        -3.4140   -4.4400    0.6780 c3        1 MOL     -0.085693
     81 C28        -3.2490   -4.7150    2.1910 c3        1 MOL     -0.188690
     82 C29        -2.1200   -5.6650    2.4560 c         1 MOL      0.625817
     83 N8         -1.4430   -5.4010    3.5840 n         1 MOL     -0.796854
     84 O15        -1.7070   -6.4570    1.6390 o         1 MOL     -0.498517
     85 H33        -2.2580   -2.1900    1.2480 hn        1 MOL      0.228143
     86 H34        -1.4330   -4.7040    0.0050 h1        1 MOL      0.166094
     87 H35        -3.7430   -5.3690    0.2120 hc        1 MOL      0.081316
     88 H36        -4.1410   -3.6350    0.5770 hc        1 MOL      0.081316
     89 H37        -4.1970   -5.0990    2.5800 hc        1 MOL      0.049416
     90 H38        -3.0400   -3.7860    2.7160 hc        1 MOL      0.049416
     91 H39        -1.7710   -4.6230    4.1480 hn        1 MOL      0.364367
     92 H40        -0.5420   -5.8050    3.7920 hn        1 MOL      0.364367
     93 N9         -3.0620   -2.4790   -1.8890 n         1 MOL     -0.154939
     94 C30        -3.5080   -2.1820   -3.1990 c3        1 MOL     -0.061261
     95 C31        -4.9590   -1.5910   -3.2720 c         1 MOL      0.597000
     96 O16        -5.5600   -1.5650   -4.3180 o         1 MOL     -0.559320
     97 C32        -2.4570   -1.1500   -3.8170 c3        1 MOL      0.050081
     98 C33        -1.0590   -1.7430   -3.9280 c3        1 MOL     -0.089910
     99 C34        -2.2910    0.1560   -3.0440 c3        1 MOL     -0.089910
    100 H41        -3.0750   -1.7490   -1.1890 hn        1 MOL      0.187154
    101 H42        -3.5140   -3.0730   -3.8240 h1        1 MOL      0.114399
    102 H43        -2.7850   -1.0180   -4.8520 hc        1 MOL      0.014353
    103 H44        -0.4130   -1.1610   -4.5760 hc        1 MOL      0.015559
    104 H45        -0.5320   -1.7320   -2.9790 hc        1 MOL      0.015559
    105 H46        -1.0090   -2.8010   -4.1660 hc        1 MOL      0.015559
    106 H47        -1.5710    0.8340   -3.5150 hc        1 MOL      0.015559
    107 H48        -3.2460    0.6780   -2.9250 hc        1 MOL      0.015559
    108 H49        -2.0330   -0.1210   -2.0280 hc        1 MOL      0.015559
    109 N10        -5.5280   -1.1730   -2.1310 n         1 MOL     -0.466054
    110 C35        -6.9070   -0.7880   -2.1100 c3        1 MOL      0.156927
    111 C36        -7.1740    0.5880   -1.6400 c         1 MOL      0.478754
    112 O17        -8.1410    1.2550   -1.9640 o         1 MOL     -0.541149
    113 C37        -7.6360   -1.8390   -1.2160 c3        1 MOL     -0.501165
    114 C38        -7.8170   -3.2340   -1.8120 c         1 MOL      0.700006
    115 N11        -8.1720   -3.3290   -3.0500 n         1 MOL     -0.718257
    116 O18        -7.6670   -4.2390   -1.1770 o         1 MOL     -0.568694
    117 H50        -5.0350   -1.1810   -1.2540 hn        1 MOL      0.254542
    118 H51        -7.4230   -0.7980   -3.0730 h1        1 MOL      0.076749
    119 H52        -8.6290   -1.4470   -1.0300 hc        1 MOL      0.147243
    120 H53        -7.0930   -1.8850   -0.2700 hc        1 MOL      0.147243
    121 H54        -8.4300   -2.5120   -3.5810 hn        1 MOL      0.342868
    122 H55        -8.3540   -4.2630   -3.3820 hn        1 MOL      0.342868
    123 N12        -6.1650    1.1330   -0.9150 n         1 MOL     -0.330545
    124 C39        -6.2650    2.1710    0.0470 c3        1 MOL      0.041295
    125 C40        -4.8690    2.8990    0.1430 c         1 MOL      0.324504
    126 O19        -3.7870    2.3770   -0.1550 o         1 MOL     -0.464481
    127 C41        -6.6110    1.6020    1.4750 c3        1 MOL     -0.204715
    128 C42        -7.6730    0.5190    1.5170 ca        1 MOL      0.010498
    129 C43        -9.0090    0.7030    1.1250 ca        1 MOL     -0.110108
    130 C44        -7.2700   -0.7310    1.9830 ca        1 MOL     -0.110108
    131 C45        -9.9520   -0.3250    1.2730 ca        1 MOL     -0.312644
    132 C46        -8.2080   -1.7720    2.1560 ca        1 MOL     -0.312644
    133 C47        -9.5460   -1.5730    1.7700 ca        1 MOL      0.408115
    134 O20       -10.4440   -2.5600    2.0230 oh        1 MOL     -0.490736
    135 H56        -5.3620    0.5140   -0.8780 hn        1 MOL      0.229097
    136 H57        -7.0310    2.8670   -0.2980 h1        1 MOL      0.069270
    137 H58        -6.9460    2.3790    2.1610 hc        1 MOL      0.127847
    138 H59        -5.6790    1.2230    1.8960 hc        1 MOL      0.127847
    139 H60        -9.3240    1.6270    0.6640 ha        1 MOL      0.132131
    140 H61        -6.2760   -0.8650    2.3970 ha        1 MOL      0.132131
    141 H62       -10.9840   -0.2100    0.9820 ha        1 MOL      0.153824
    142 H63        -7.9140   -2.6570    2.7050 ha        1 MOL      0.153824
    143 H64       -11.3050   -2.3380    1.6460 ho        1 MOL      0.345441
    144 N13        -4.9680    4.0050    0.8410 n         1 MOL     -0.341513
    145 C48        -3.8920    4.8650    1.4120 c3        1 MOL     -0.031211
    146 C49        -2.6620    5.3100    0.6140 c         1 MOL      0.403339
    147 O21        -2.3890    6.4550    0.6420 o         1 MOL     -0.504768
    148 C50        -3.3490    4.2140    2.7020 c3        1 MOL      0.128182
    149 C51        -4.4030    3.9050    3.7820 c3        1 MOL     -0.252294
    150 C52        -3.7330    3.5640    5.0930 c         1 MOL      0.674857
    151 O22        -3.4570    4.5660    5.8910 o         1 MOL     -0.717177
    152 O23        -3.3800    2.3880    5.3130 o         1 MOL     -0.717177
    153 H65        -5.9330    4.2990    0.9480 hn        1 MOL      0.269710
    154 H66        -4.4220    5.8050    1.5890 h1        1 MOL      0.072415
    155 H67        -2.6300    4.9200    3.1020 hc        1 MOL      0.042198
    156 H68        -2.7690    3.3100    2.5010 hc        1 MOL      0.042198
    157 H69        -4.9780    3.0580    3.4030 hc        1 MOL      0.002479
    158 H70        -5.1010    4.7290    3.9290 hc        1 MOL      0.002479
    159 N14        -2.0070    4.4420   -0.1500 n         1 MOL     -0.335917
    160 C53        -0.9710    4.7270   -1.0970 c3        1 MOL     -0.138040
    161 C54        -1.4190    5.6100   -2.2330 c         1 MOL      0.478153
    162 O24        -0.5920    6.1580   -2.9280 o         1 MOL     -0.556785
    163 C55        -0.3820    3.4060   -1.6670 c3        1 MOL     -0.111359
    164 C56        -0.1490    2.2080   -0.7490 c3        1 MOL      0.088006
    165 C57         1.1600    2.3340    0.0450 c         1 MOL      0.677031
    166 O25         1.2180    3.0780    0.9960 o         1 MOL     -0.642951
    167 O26         2.1880    1.6550   -0.2820 o         1 MOL     -0.642951
    168 H71        -2.3810    3.5080   -0.2120 hn        1 MOL      0.326573
    169 H72        -0.1620    5.2420   -0.5800 h1        1 MOL      0.170434
    170 H73         0.5790    3.7070   -2.0930 hc        1 MOL      0.060271
    171 H74        -1.1260    2.9690   -2.3360 hc        1 MOL      0.060271
    172 H75        -0.0410    1.3220   -1.3790 hc        1 MOL     -0.045732
    173 H76        -0.8950    2.1920    0.0360 hc        1 MOL     -0.045732
    174 N15        -2.6820    5.6390   -2.5500 n         1 MOL     -0.144712
    175 C58        -3.2710    6.3400   -3.6530 c3        1 MOL     -0.297096
    176 H77        -2.4840    6.7720   -4.2720 h1        1 MOL      0.110018
    177 H78        -3.8630    5.6460   -4.2520 h1        1 MOL      0.110018
    178 H79        -3.9150    7.1360   -3.2770 h1        1 MOL      0.110018
    179 H80        -3.2530    5.0320   -1.9850 hn        1 MOL      0.190273
    180 Ca1         4.2420    1.7800    1.1920 Ca        1 MOL      1.731562
    181 O27         6.1190    0.3660    2.5570 oh        1 MOL     -0.960501
    182 H81         7.0350    0.2580    2.3150 ho        1 MOL      0.441452
    183 H82         5.9870   -0.2840    3.2620 ho        1 MOL      0.441452
    184 O28         3.3490    4.2190    1.8260 oh        1 MOL     -0.960501
    185 H83         3.1690    5.1190    2.0840 ho        1 MOL      0.441452
    186 H84         2.4920    3.8610    1.5970 ho        1 MOL      0.441452
    187 O29         3.2310    1.8360    3.5740 oh        1 MOL     -0.960501
    188 H85         3.4680    2.5910    4.1130 ho        1 MOL      0.441452
    189 H86         3.4840    1.0770    4.0960 ho        1 MOL      0.441452
@<TRIPOS>BOND
     1    1    2 1   
     2    1    4 1   
     3    1    5 1   
     4    1    6 1   
     5    2    3 2   
     6    2    7 1   
     7    7    8 1   
     8    7   15 1   
     9    8    9 1   
    10    8   11 1   
    11    8   16 1   
    12    9   10 2   
    13    9   19 1   
    14   11   12 1   
    15   11   17 1   
    16   11   18 1   
    17   12   13 1   
    18   12   14 1   
    19   19   20 1   
    20   19   27 1   
    21   20   21 1   
    22   20   23 1   
    23   20   28 1   
    24   21   22 2   
    25   21   38 1   
    26   23   24 1   
    27   23   25 1   
    28   23   29 1   
    29   24   26 1   
    30   24   30 1   
    31   24   31 1   
    32   25   32 1   
    33   25   33 1   
    34   25   34 1   
    35   26   35 1   
    36   26   36 1   
    37   26   37 1   
    38   38   39 1   
    39   38   46 1   
    40   39   40 1   
    41   39   42 1   
    42   39   47 1   
    43   40   41 2   
    44   40   50 1   
    45   42   43 1   
    46   42   48 1   
    47   42   49 1   
    48   43   44 1   
    49   43   45 1   
    50   50   51 1   
    51   50   54 1   
    52   51   52 1   
    53   51   55 1   
    54   51   56 1   
    55   52   53 2   
    56   52   57 1   
    57   57   58 1   
    58   57   65 1   
    59   58   59 1   
    60   58   61 1   
    61   58   66 1   
    62   59   60 2   
    63   59   69 1   
    64   61   62 1   
    65   61   67 1   
    66   61   68 1   
    67   62   63 1   
    68   62   64 1   
    69   69   70 1   
    70   69   73 1   
    71   70   71 1   
    72   70   74 1   
    73   70   75 1   
    74   71   72 2   
    75   71   76 1   
    76   76   77 1   
    77   76   85 1   
    78   77   78 1   
    79   77   80 1   
    80   77   86 1   
    81   78   79 2   
    82   78   93 1   
    83   80   81 1   
    84   80   87 1   
    85   80   88 1   
    86   81   82 1   
    87   81   89 1   
    88   81   90 1   
    89   82   83 1   
    90   82   84 2   
    91   83   91 1   
    92   83   92 1   
    93   93   94 1   
    94   93  100 1   
    95   94   95 1   
    96   94   97 1   
    97   94  101 1   
    98   95   96 2   
    99   95  109 1   
   100   97   98 1   
   101   97   99 1   
   102   97  102 1   
   103   98  103 1   
   104   98  104 1   
   105   98  105 1   
   106   99  106 1   
   107   99  107 1   
   108   99  108 1   
   109  109  110 1   
   110  109  117 1   
   111  110  111 1   
   112  110  113 1   
   113  110  118 1   
   114  111  112 2   
   115  111  123 1   
   116  113  114 1   
   117  113  119 1   
   118  113  120 1   
   119  114  115 1   
   120  114  116 2   
   121  115  121 1   
   122  115  122 1   
   123  123  124 1   
   124  123  135 1   
   125  124  125 1   
   126  124  127 1   
   127  124  136 1   
   128  125  126 2   
   129  125  144 1   
   130  127  128 1   
   131  127  137 1   
   132  127  138 1   
   133  128  129 ar  
   134  128  130 ar  
   135  129  131 ar  
   136  129  139 1   
   137  130  132 ar  
   138  130  140 1   
   139  131  133 ar  
   140  131  141 1   
   141  132  133 ar  
   142  132  142 1   
   143  133  134 1   
   144  134  143 1   
   145  144  145 1   
   146  144  153 1   
   147  145  146 1   
   148  145  148 1   
   149  145  154 1   
   150  146  147 2   
   151  146  159 1   
   152  148  149 1   
   153  148  155 1   
   154  148  156 1   
   155  149  150 1   
   156  149  157 1   
   157  149  158 1   
   158  150  151 1   
   159  150  152 1   
   160  159  160 1   
   161  159  168 1   
   162  160  161 1   
   163  160  163 1   
   164  160  169 1   
   165  161  162 2   
   166  161  174 1   
   167  163  164 1   
   168  163  170 1   
   169  163  171 1   
   170  164  165 1   
   171  164  172 1   
   172  164  173 1   
   173  165  166 1   
   174  165  167 1   
   175  174  175 1   
   176  174  179 1   
   177  175  176 1   
   178  175  177 1   
   179  175  178 1   
   180  181  182 1   
   181  181  183 1   
   182  184  185 1   
   183  184  186 1   
   184  187  188 1   
   185  187  189 1   
@<TRIPOS>SUBSTRUCTURE
     1 MOL         1 TEMP              0 ****  ****    0 ROOT
