@<TRIPOS>MOLECULE
MOL
  192   187     1     0     0
SMALL
resp


@<TRIPOS>ATOM
      1 C1         11.0670    5.5790   -3.4060 c3        1 MOL     -0.531954
      2 C2         11.1100    4.1690   -2.7050 c         1 MOL      0.687710
      3 O1         11.3550    3.1300   -3.2590 o         1 MOL     -0.596419
      4 H1         10.8520    6.3470   -2.6630 hc        1 MOL      0.144983
      5 H2         12.0320    5.7840   -3.8700 hc        1 MOL      0.144983
      6 H3         10.2880    5.5830   -4.1680 hc        1 MOL      0.144983
      7 N1         10.8350    4.0950   -1.3710 n         1 MOL     -0.208927
      8 C3         10.7590    2.8670   -0.5820 c3        1 MOL     -0.450471
      9 C4          9.3500    2.1400   -0.7150 c         1 MOL      0.585766
     10 O2          8.3580    2.8190   -0.5930 o         1 MOL     -0.672618
     11 C5         11.0170    3.0710    0.8820 c3        1 MOL      0.017777
     12 C6         10.3940    4.2070    1.6410 c         1 MOL      0.775398
     13 O3          9.4280    4.8450    1.1520 o         1 MOL     -0.738414
     14 O4         10.8470    4.4860    2.7430 o         1 MOL     -0.738414
     15 H4         10.5120    4.9710   -0.9710 hn        1 MOL      0.123005
     16 H5         11.5560    2.2170   -0.9540 h1        1 MOL      0.172296
     17 H6         12.1050    3.1530    0.9630 hc        1 MOL      0.043182
     18 H7         10.8600    2.0540    1.2690 hc        1 MOL      0.043182
     19 N2          9.3720    0.8300   -0.9050 n         1 MOL     -0.175347
     20 C7          8.2210   -0.0830   -1.0670 c3        1 MOL     -0.063714
     21 C8          7.4450   -0.4170    0.1850 c         1 MOL      0.545806
     22 O5          7.9160   -1.2540    0.9340 o         1 MOL     -0.513738
     23 C9          8.6580   -1.3700   -1.8170 c3        1 MOL     -0.280219
     24 C10         7.4640   -2.1180   -2.3940 c3        1 MOL      0.458306
     25 C11         7.7570   -3.3720   -3.2990 c3        1 MOL     -0.294899
     26 C12         6.5400   -4.3360   -3.2800 c3        1 MOL      0.114761
     27 N3          6.9700   -5.7460   -3.2960 n4        1 MOL     -0.325833
     28 H8         10.2310    0.3310   -1.0590 hn        1 MOL      0.245120
     29 H9          7.4670    0.4160   -1.6860 h1        1 MOL      0.063656
     30 H10         9.3220   -1.9590   -1.1920 hc        1 MOL      0.078872
     31 H11         9.2390   -0.9640   -2.6480 hc        1 MOL      0.078872
     32 H12         6.8670   -1.4410   -3.0140 hc        1 MOL     -0.091241
     33 H13         6.9270   -2.4150   -1.4940 hc        1 MOL     -0.091241
     34 H14         8.5920   -3.8720   -2.8000 hc        1 MOL      0.073820
     35 H15         8.0390   -3.0510   -4.3060 hc        1 MOL      0.073820
     36 H16         5.7720   -4.0900   -4.0170 hx        1 MOL      0.101545
     37 H17         6.2320   -4.1760   -2.2440 hx        1 MOL      0.101545
     38 H18         7.2540   -6.0850   -2.3920 hn        1 MOL      0.289397
     39 H19         6.2690   -6.2700   -3.8040 hn        1 MOL      0.289397
     40 H20         7.6560   -5.9300   -4.0120 hn        1 MOL      0.289397
     41 N4          6.3440    0.2470    0.4930 n         1 MOL     -0.319842
     42 C13         5.3660   -0.0010    1.5770 c3        1 MOL      0.052724
     43 C14         3.9160    0.3390    1.1070 c         1 MOL      0.400041
     44 O6          3.7940    1.1680    0.1430 o         1 MOL     -0.553054
     45 C15         5.7850    0.7150    2.8840 c3        1 MOL     -0.180098
     46 C16         6.2960    2.1420    2.6010 c         1 MOL      0.539350
     47 O7          5.4810    3.0480    2.4100 o         1 MOL     -0.646889
     48 O8          7.5020    2.4040    2.2970 o         1 MOL     -0.646889
     49 H21         6.0010    0.8650   -0.2210 hn        1 MOL      0.120243
     50 H22         5.4130   -1.0670    1.7690 h1        1 MOL      0.120611
     51 H23         6.5660    0.1450    3.3720 hc        1 MOL      0.089575
     52 H24         4.9570    0.7390    3.5940 hc        1 MOL      0.089575
     53 N5          2.8700   -0.2880    1.5620 n         1 MOL     -0.223636
     54 C17         2.8370   -1.3630    2.6230 c3        1 MOL     -0.252138
     55 C18         3.2440   -2.7730    2.2050 c         1 MOL      0.651150
     56 O9          3.9800   -2.8750    1.2860 o         1 MOL     -0.541796
     57 H25         2.0250   -0.0970    1.0510 hn        1 MOL      0.258664
     58 H26         1.8400   -1.3490    3.0650 h1        1 MOL      0.112777
     59 H27         3.4120   -0.9770    3.4660 h1        1 MOL      0.112777
     60 N6          2.9090   -3.7520    2.9900 n         1 MOL     -0.490430
     61 C19         3.2120   -5.2150    2.7800 c3        1 MOL      0.079466
     62 C20         2.5160   -5.8120    1.5590 c         1 MOL      0.351221
     63 O10         3.0090   -6.7200    0.9630 o         1 MOL     -0.513670
     64 C21         2.6150   -6.0060    3.9780 c3        1 MOL     -0.228685
     65 C22         3.3710   -5.8280    5.3270 c         1 MOL      0.689576
     66 O11         4.5370   -5.3410    5.3460 o         1 MOL     -0.655027
     67 O12         2.8100   -6.1850    6.3940 o         1 MOL     -0.655027
     68 H28         2.2510   -3.5730    3.7380 hn        1 MOL      0.320644
     69 H29         4.2830   -5.4070    2.7830 h1        1 MOL      0.107675
     70 H30         2.5890   -7.0790    3.7960 hc        1 MOL      0.056076
     71 H31         1.5830   -5.7270    4.1780 hc        1 MOL      0.056076
     72 N7          1.3150   -5.3870    1.1980 n         1 MOL     -0.132533
     73 C23         0.5110   -5.9150    0.0900 c3        1 MOL     -0.202137
     74 C24         0.5850   -5.0320   -1.1380 c         1 MOL      0.522487
     75 O13         0.2090   -5.4150   -2.2170 o         1 MOL     -0.559395
     76 H32         0.8690   -4.6310    1.7130 hn        1 MOL      0.178137
     77 H33        -0.4910   -5.8900    0.5200 h1        1 MOL      0.122859
     78 H34         0.7670   -6.9300   -0.1940 h1        1 MOL      0.122859
     79 N8          1.0370   -3.8000   -0.8370 n         1 MOL     -0.155798
     80 C25         1.0760   -2.6310   -1.7970 c3        1 MOL     -0.003653
     81 C26         0.3780   -1.5150   -1.0100 c         1 MOL      0.496052
     82 O14         0.3350   -1.4860    0.1710 o         1 MOL     -0.506289
     83 C27         2.5800   -2.2610   -2.0380 c3        1 MOL      0.328157
     84 C28         3.3620   -3.2080   -2.9390 c3        1 MOL     -0.234047
     85 O15         2.5300   -1.0510   -2.8200 oh        1 MOL     -0.649958
     86 H35         1.5440   -3.7040    0.0340 hn        1 MOL      0.071266
     87 H36         0.5260   -2.8670   -2.6990 h1        1 MOL      0.058569
     88 H37         3.0980   -2.1290   -1.0980 h1        1 MOL      0.023822
     89 H38         3.4340   -0.8960   -3.1070 ho        1 MOL      0.396111
     90 H39         3.6750   -4.1400   -2.4590 hc        1 MOL      0.038436
     91 H40         2.9720   -3.3040   -3.9560 hc        1 MOL      0.038436
     92 H41         4.3340   -2.7280   -3.0530 hc        1 MOL      0.038436
     93 N9         -0.1710   -0.5830   -1.7470 n         1 MOL     -0.115865
     94 C29        -0.8260    0.5690   -1.1260 c3        1 MOL     -0.626664
     95 C30        -2.3000    0.1460   -0.6890 c         1 MOL      0.747567
     96 O16        -2.9700    0.8920   -0.0150 o         1 MOL     -0.563952
     97 C31        -0.8580    1.8290   -1.9900 c3        1 MOL      0.262528
     98 C32        -1.7920    1.6870   -3.2290 c3        1 MOL      0.160855
     99 C33         0.6370    2.2010   -2.3590 c3        1 MOL     -0.257105
    100 C34        -1.9210    2.8760   -4.1920 c3        1 MOL     -0.352096
    101 H42        -0.1030   -0.6280   -2.7530 hn        1 MOL      0.240465
    102 H43        -0.1930    0.8840   -0.2960 h1        1 MOL      0.243696
    103 H44        -1.3050    2.6940   -1.5090 hc        1 MOL      0.011976
    104 H45        -2.7740    1.3060   -2.9680 hc        1 MOL     -0.015977
    105 H46        -1.2850    0.9540   -3.8640 hc        1 MOL     -0.015977
    106 H47         0.6570    3.1590   -2.8810 hc        1 MOL      0.055526
    107 H48         1.3080    2.1770   -1.5080 hc        1 MOL      0.055526
    108 H49         1.1000    1.4170   -2.9600 hc        1 MOL      0.055526
    109 H50        -2.7740    2.6870   -4.8500 hc        1 MOL      0.087794
    110 H51        -2.2450    3.7300   -3.5990 hc        1 MOL      0.087794
    111 H52        -0.9960    3.1050   -4.7080 hc        1 MOL      0.087794
    112 N10        -2.8120   -0.9830   -1.1240 n         1 MOL     -0.550821
    113 C35        -4.1060   -1.4680   -0.5770 c3        1 MOL      0.056372
    114 C36        -5.0640   -2.0790   -1.6560 c         1 MOL      0.642396
    115 O17        -4.6590   -2.7100   -2.6070 o         1 MOL     -0.519929
    116 C37        -3.7410   -2.6390    0.5160 c3        1 MOL      0.282370
    117 C38        -2.8070   -3.6630    0.0800 c3        1 MOL     -0.066373
    118 O18        -3.0960   -2.1060    1.6620 oh        1 MOL     -0.587573
    119 H53        -2.3160   -1.6130   -1.7340 hn        1 MOL      0.233462
    120 H54        -4.7220   -0.7900    0.0130 h1        1 MOL      0.057827
    121 H55        -4.6830   -3.0750    0.8570 h1        1 MOL     -0.022772
    122 H56        -3.6710   -1.4400    2.0420 ho        1 MOL      0.389626
    123 H57        -2.6630   -4.4880    0.7740 hc        1 MOL      0.014179
    124 H58        -3.2810   -4.0810   -0.8040 hc        1 MOL      0.014179
    125 H59        -1.8610   -3.2350   -0.2630 hc        1 MOL      0.014179
    126 N11        -6.3480   -1.7870   -1.4550 n         1 MOL     -0.581792
    127 C39        -7.4490   -2.3650   -2.2350 c3        1 MOL     -0.005830
    128 C40        -8.6220   -1.3510   -2.3240 c         1 MOL      0.726818
    129 O19        -9.2050   -1.1770   -3.3950 o         1 MOL     -0.567471
    130 C41        -7.8590   -3.6280   -1.5070 c3        1 MOL      0.212964
    131 C42        -8.9430   -4.4030   -2.3350 c3        1 MOL     -0.438807
    132 O20        -8.3540   -3.3910   -0.1650 oh        1 MOL     -0.592371
    133 H60        -6.5590   -1.3780   -0.5590 hn        1 MOL      0.305768
    134 H61        -7.0890   -2.5960   -3.2460 h1        1 MOL      0.118835
    135 H62        -7.0190   -4.3060   -1.3680 h1        1 MOL      0.071722
    136 H63        -9.0370   -4.0540   -0.0690 ho        1 MOL      0.387701
    137 H64        -9.2240   -5.2930   -1.7730 hc        1 MOL      0.124437
    138 H65        -9.8270   -3.7750   -2.4530 hc        1 MOL      0.124437
    139 H66        -8.4970   -4.6720   -3.2910 hc        1 MOL      0.124437
    140 N12        -8.9520   -0.7060   -1.1720 n         1 MOL     -0.684606
    141 C43       -10.1620    0.1420   -0.9070 c3        1 MOL      0.256985
    142 C44        -9.8580    1.2390    0.0720 c         1 MOL      0.634342
    143 O21        -9.1190    1.0280    1.0430 o         1 MOL     -0.508358
    144 C45       -11.1050   -0.9320   -0.2120 c3        1 MOL     -0.533984
    145 C46       -12.4070   -0.3190    0.2880 c3        1 MOL      0.307348
    146 C47       -13.3560   -1.3270    1.0300 c3        1 MOL     -0.048859
    147 C48       -14.5880   -0.5870    1.5190 c3        1 MOL     -0.068870
    148 N13       -15.4730   -1.3290    2.3820 n4        1 MOL     -0.038616
    149 H67        -8.4950   -1.0470   -0.3350 hn        1 MOL      0.322962
    150 H68       -10.6440    0.6430   -1.7510 h1        1 MOL      0.063972
    151 H69       -10.5710   -1.3810    0.6180 hc        1 MOL      0.153948
    152 H70       -11.4010   -1.5710   -1.0400 hc        1 MOL      0.153948
    153 H71       -12.9410    0.1810   -0.5130 hc        1 MOL     -0.032182
    154 H72       -12.1720    0.4760    0.9970 hc        1 MOL     -0.032182
    155 H73       -12.8730   -1.7650    1.8980 hc        1 MOL      0.026927
    156 H74       -13.6310   -2.0340    0.2460 hc        1 MOL      0.026927
    157 H75       -15.1520   -0.3200    0.6270 hx        1 MOL      0.079431
    158 H76       -14.1470    0.2400    2.0820 hx        1 MOL      0.079431
    159 H77       -14.9300   -1.8620    3.0460 hn        1 MOL      0.192744
    160 H78       -16.0990   -0.7620    2.9410 hn        1 MOL      0.192744
    161 H79       -16.0550   -1.9920    1.8930 hn        1 MOL      0.192744
    162 N14       -10.4240    2.4380   -0.1210 n         1 MOL     -0.600547
    163 C49       -10.5090    3.4580    0.8560 c3        1 MOL      0.195565
    164 C50        -9.2550    3.9270    1.5470 c         1 MOL      0.291750
    165 O22        -9.2290    3.9980    2.7900 o         1 MOL     -0.500515
    166 C51       -11.3200    4.5910    0.2230 c3        1 MOL     -0.080835
    167 C52       -11.6180    5.7400    1.2280 c3        1 MOL     -0.265108
    168 C53       -12.4140    6.9490    0.6910 c         1 MOL      0.781244
    169 O23       -13.6190    7.0030    0.6050 o         1 MOL     -0.663340
    170 O24       -11.7390    7.9550    0.4200 o         1 MOL     -0.663340
    171 H80       -11.0970    2.5600   -0.8620 hn        1 MOL      0.275063
    172 H81       -11.1720    3.0330    1.6010 h1        1 MOL      0.054920
    173 H82       -12.3060    4.2910   -0.1310 hc        1 MOL      0.037522
    174 H83       -10.7340    4.8720   -0.6510 hc        1 MOL      0.037522
    175 H84       -10.7160    6.0520    1.7470 hc        1 MOL      0.063689
    176 H85       -12.2160    5.3000    2.0270 hc        1 MOL      0.063689
    177 N15        -8.1400    4.2970    0.8680 n         1 MOL     -0.222667
    178 C54        -7.8260    4.3310   -0.5570 c3        1 MOL     -0.086315
    179 H86        -8.0310    3.3550   -0.9970 h1        1 MOL      0.068924
    180 H87        -8.4400    5.0860   -1.0470 h1        1 MOL      0.068924
    181 H88        -6.7720    4.5750   -0.6910 h1        1 MOL      0.068924
    182 H89        -7.4450    4.7150    1.4750 hn        1 MOL      0.265539
    183 Ca1         6.8620    4.5440    0.7470 Ca        1 MOL      1.764857
    184 O25         4.6240    5.9780    1.2180 oh        1 MOL     -0.889884
    185 H90         4.0340    6.1470    1.9540 ho        1 MOL      0.442170
    186 H91         4.2500    6.4810    0.4960 ho        1 MOL      0.442170
    187 O26         7.4690    5.4430    3.2070 oh        1 MOL     -0.889884
    188 H92         7.5950    4.5480    3.5160 ho        1 MOL      0.442170
    189 H93         8.2770    5.8960    3.4500 ho        1 MOL      0.442170
    190 O27         4.9320    3.3860   -0.5180 oh        1 MOL     -0.889884
    191 H94         5.2700    2.7240   -1.1250 ho        1 MOL      0.442170
    192 H95         4.1730    2.9560   -0.1070 ho        1 MOL      0.442170
@<TRIPOS>BOND
     1    1    2 1   
     2    1    4 1   
     3    1    5 1   
     4    1    6 1   
     5    2    3 2   
     6    2    7 1   
     7    7    8 1   
     8    7   15 1   
     9    8    9 1   
    10    8   11 1   
    11    8   16 1   
    12    9   10 2   
    13    9   19 1   
    14   11   12 1   
    15   11   17 1   
    16   11   18 1   
    17   12   13 1   
    18   12   14 1   
    19   19   20 1   
    20   19   28 1   
    21   20   21 1   
    22   20   23 1   
    23   20   29 1   
    24   21   22 2   
    25   21   41 1   
    26   23   24 1   
    27   23   30 1   
    28   23   31 1   
    29   24   25 1   
    30   24   32 1   
    31   24   33 1   
    32   25   26 1   
    33   25   34 1   
    34   25   35 1   
    35   26   27 1   
    36   26   36 1   
    37   26   37 1   
    38   27   38 1   
    39   27   39 1   
    40   27   40 1   
    41   41   42 1   
    42   41   49 1   
    43   42   43 1   
    44   42   45 1   
    45   42   50 1   
    46   43   44 2   
    47   43   53 1   
    48   45   46 1   
    49   45   51 1   
    50   45   52 1   
    51   46   47 1   
    52   46   48 1   
    53   53   54 1   
    54   53   57 1   
    55   54   55 1   
    56   54   58 1   
    57   54   59 1   
    58   55   56 2   
    59   55   60 1   
    60   60   61 1   
    61   60   68 1   
    62   61   62 1   
    63   61   64 1   
    64   61   69 1   
    65   62   63 2   
    66   62   72 1   
    67   64   65 1   
    68   64   70 1   
    69   64   71 1   
    70   65   66 1   
    71   65   67 1   
    72   72   73 1   
    73   72   76 1   
    74   73   74 1   
    75   73   77 1   
    76   73   78 1   
    77   74   75 2   
    78   74   79 1   
    79   79   80 1   
    80   79   86 1   
    81   80   81 1   
    82   80   83 1   
    83   80   87 1   
    84   81   82 2   
    85   81   93 1   
    86   83   84 1   
    87   83   85 1   
    88   83   88 1   
    89   84   90 1   
    90   84   91 1   
    91   84   92 1   
    92   85   89 1   
    93   93   94 1   
    94   93  101 1   
    95   94   95 1   
    96   94   97 1   
    97   94  102 1   
    98   95   96 2   
    99   95  112 1   
   100   97   98 1   
   101   97   99 1   
   102   97  103 1   
   103   98  100 1   
   104   98  104 1   
   105   98  105 1   
   106   99  106 1   
   107   99  107 1   
   108   99  108 1   
   109  100  109 1   
   110  100  110 1   
   111  100  111 1   
   112  112  113 1   
   113  112  119 1   
   114  113  114 1   
   115  113  116 1   
   116  113  120 1   
   117  114  115 2   
   118  114  126 1   
   119  116  117 1   
   120  116  118 1   
   121  116  121 1   
   122  117  123 1   
   123  117  124 1   
   124  117  125 1   
   125  118  122 1   
   126  126  127 1   
   127  126  133 1   
   128  127  128 1   
   129  127  130 1   
   130  127  134 1   
   131  128  129 2   
   132  128  140 1   
   133  130  131 1   
   134  130  132 1   
   135  130  135 1   
   136  131  137 1   
   137  131  138 1   
   138  131  139 1   
   139  132  136 1   
   140  140  141 1   
   141  140  149 1   
   142  141  142 1   
   143  141  144 1   
   144  141  150 1   
   145  142  143 2   
   146  142  162 1   
   147  144  145 1   
   148  144  151 1   
   149  144  152 1   
   150  145  146 1   
   151  145  153 1   
   152  145  154 1   
   153  146  147 1   
   154  146  155 1   
   155  146  156 1   
   156  147  148 1   
   157  147  157 1   
   158  147  158 1   
   159  148  159 1   
   160  148  160 1   
   161  148  161 1   
   162  162  163 1   
   163  162  171 1   
   164  163  164 1   
   165  163  166 1   
   166  163  172 1   
   167  164  165 2   
   168  164  177 1   
   169  166  167 1   
   170  166  173 1   
   171  166  174 1   
   172  167  168 1   
   173  167  175 1   
   174  167  176 1   
   175  168  169 1   
   176  168  170 1   
   177  177  178 1   
   178  177  182 1   
   179  178  179 1   
   180  178  180 1   
   181  178  181 1   
   182  184  185 1   
   183  184  186 1   
   184  187  188 1   
   185  187  189 1   
   186  190  191 1   
   187  190  192 1   
@<TRIPOS>SUBSTRUCTURE
     1 MOL         1 TEMP              0 ****  ****    0 ROOT
