@<TRIPOS>MOLECULE
MOL
  192   187     1     0     0
SMALL
resp


@<TRIPOS>ATOM
      1 C1          9.5200    1.6630    1.0050 c3        1 MOL     -0.539836
      2 C2          8.3170    0.8580    0.4560 c         1 MOL      0.657815
      3 O1          7.3500    0.5800    1.1870 o         1 MOL     -0.636863
      4 H1         10.0010    1.0970    1.8020 hc        1 MOL      0.143007
      5 H2         10.2350    1.8410    0.2020 hc        1 MOL      0.143007
      6 H3          9.1700    2.6170    1.3980 hc        1 MOL      0.143007
      7 N1          8.3500    0.5370   -0.8130 n         1 MOL     -0.433210
      8 C3          7.2050    0.0870   -1.6870 c3        1 MOL      0.056437
      9 C4          6.9970   -1.4200   -1.4140 c         1 MOL      0.502631
     10 O2          6.8930   -2.2250   -2.3490 o         1 MOL     -0.437071
     11 C5          7.4100    0.4440   -3.1630 c3        1 MOL     -0.322112
     12 C6          8.6780   -0.0910   -3.8150 c         1 MOL      0.751149
     13 O3          8.9090    0.2060   -5.0240 o         1 MOL     -0.649053
     14 O4          9.4490   -0.8350   -3.2220 o         1 MOL     -0.649053
     15 H4          9.2210    0.5110   -1.3290 hn        1 MOL      0.260228
     16 H5          6.2910    0.6060   -1.4080 h1        1 MOL      0.110999
     17 H6          7.4760    1.5340   -3.1940 hc        1 MOL      0.099072
     18 H7          6.5610    0.1540   -3.7780 hc        1 MOL      0.099072
     19 N2          6.9920   -1.7910   -0.1360 n         1 MOL     -0.599645
     20 C7          6.6480   -3.1650    0.1740 c3        1 MOL      0.311242
     21 C8          5.1820   -3.5000   -0.0820 c         1 MOL      0.334860
     22 O5          4.9760   -4.6230   -0.5050 o         1 MOL     -0.512379
     23 C9          7.1410   -3.4420    1.5870 c3        1 MOL     -0.119414
     24 C10         8.6750   -3.2210    1.8630 c3        1 MOL      0.190314
     25 C11         9.2620   -3.7510    3.1510 c3        1 MOL     -0.124742
     26 C12        10.7270   -3.8160    3.1260 c3        1 MOL      0.154517
     27 N3         11.3330   -4.4990    4.3090 n4        1 MOL     -0.141960
     28 H8          7.0750   -1.0630    0.5610 hn        1 MOL      0.308825
     29 H9          7.1850   -3.8450   -0.4870 h1        1 MOL      0.048729
     30 H10         7.0020   -4.5000    1.8030 hc        1 MOL      0.002585
     31 H11         6.5530   -2.8160    2.2600 hc        1 MOL      0.002585
     32 H12         8.7550   -2.1390    1.9090 hc        1 MOL     -0.022163
     33 H13         9.2790   -3.5380    1.0210 hc        1 MOL     -0.022163
     34 H14         8.9020   -4.7750    3.2650 hc        1 MOL      0.036905
     35 H15         8.9830   -3.1400    4.0060 hc        1 MOL      0.036905
     36 H16        11.1500   -2.8110    3.1160 hx        1 MOL      0.033717
     37 H17        11.1340   -4.3550    2.2660 hx        1 MOL      0.033717
     38 H18        10.9470   -4.2490    5.2100 hn        1 MOL      0.204521
     39 H19        11.1820   -5.4920    4.2280 hn        1 MOL      0.204521
     40 H20        12.3280   -4.3550    4.2970 hn        1 MOL      0.204521
     41 N4          4.1130   -2.7130    0.1610 n         1 MOL     -0.315180
     42 C13         4.0470   -1.3550    0.8150 c3        1 MOL      0.113324
     43 C14         3.9790   -0.1600   -0.1230 c         1 MOL      0.322961
     44 O6          3.8420   -0.3590   -1.3460 o         1 MOL     -0.433348
     45 C15         2.8720   -1.2550    1.7480 c3        1 MOL     -0.425072
     46 C16         1.5270   -1.7750    1.1890 c         1 MOL      0.847291
     47 O7          0.7660   -1.0060    0.6480 o         1 MOL     -0.707466
     48 O8          1.2870   -3.0070    1.3350 o         1 MOL     -0.707466
     49 H21         3.2160   -3.1440   -0.0010 hn        1 MOL      0.322140
     50 H22         4.8980   -1.1610    1.4620 h1        1 MOL      0.120584
     51 H23         2.6940   -0.2240    2.0430 hc        1 MOL      0.067086
     52 H24         3.1480   -1.8310    2.6350 hc        1 MOL      0.067086
     53 N5          4.1890    1.0360    0.4120 n         1 MOL     -0.344572
     54 C17         4.0600    2.3360   -0.2340 c3        1 MOL     -0.017753
     55 C18         2.6960    2.6240   -0.8420 c         1 MOL      0.307174
     56 O9          1.7450    1.8760   -0.6950 o         1 MOL     -0.185002
     57 H25         4.3430    1.0620    1.4110 hn        1 MOL      0.278683
     58 H26         4.8330    2.4210   -0.9980 h1        1 MOL      0.073822
     59 H27         4.2760    3.0590    0.5520 h1        1 MOL      0.073822
     60 N6          2.7460    3.8380   -1.4850 n         1 MOL     -0.428520
     61 C19         1.6660    4.4880   -2.1210 c3        1 MOL      0.420218
     62 C20         1.9660    6.0020   -2.1710 c         1 MOL      0.336684
     63 O10         3.1180    6.4490   -2.2700 o         1 MOL     -0.515923
     64 C21         1.3650    3.9930   -3.4940 c3        1 MOL     -0.275058
     65 C22         0.9060    2.5220   -3.5380 c         1 MOL      0.603116
     66 O11        -0.0590    2.1720   -2.8390 o         1 MOL     -0.626380
     67 O12         1.6120    1.6860   -4.1040 o         1 MOL     -0.626380
     68 H28         3.6060    4.3670   -1.4090 hn        1 MOL      0.257273
     69 H29         0.7370    4.3090   -1.5760 h1        1 MOL     -0.100609
     70 H30         2.2640    4.0600   -4.0990 hc        1 MOL      0.069342
     71 H31         0.6400    4.5650   -4.0830 hc        1 MOL      0.069342
     72 N7          0.9900    6.9290   -2.2090 n         1 MOL     -0.335512
     73 C23        -0.4750    6.7870   -2.1790 c3        1 MOL     -0.202787
     74 C24        -1.0090    6.2090   -0.8240 c         1 MOL      0.703054
     75 O13        -0.5740    6.6780    0.1750 o         1 MOL     -0.523662
     76 H32         1.2920    7.8600   -2.4470 hn        1 MOL      0.304992
     77 H33        -0.6150    6.0910   -3.0060 h1        1 MOL      0.100909
     78 H34        -0.8710    7.7810   -2.3640 h1        1 MOL      0.100909
     79 N8         -2.0720    5.3730   -0.9240 n         1 MOL     -0.674151
     80 C25        -2.7100    4.8730    0.3310 c3        1 MOL      0.074191
     81 C26        -1.8050    3.7500    0.8200 c         1 MOL      1.043295
     82 O14        -1.2690    2.9800    0.0220 o         1 MOL     -0.779892
     83 C27        -4.2000    4.4120    0.1140 c3        1 MOL      0.309180
     84 C28        -4.8600    3.9610    1.4430 c3        1 MOL     -0.450634
     85 O15        -4.3280    3.3530   -0.7910 oh        1 MOL     -0.590506
     86 H35        -2.3390    5.0390   -1.8320 hn        1 MOL      0.346733
     87 H36        -2.6100    5.6140    1.1070 h1        1 MOL      0.034826
     88 H37        -4.7950    5.2510   -0.2670 h1        1 MOL      0.032495
     89 H38        -5.2600    3.2840   -1.0220 ho        1 MOL      0.420140
     90 H39        -4.7720    4.6790    2.2540 hc        1 MOL      0.109672
     91 H40        -5.9220    3.7550    1.2850 hc        1 MOL      0.109672
     92 H41        -4.4370    3.0150    1.7560 hc        1 MOL      0.109672
     93 N9         -1.5740    3.6860    2.1910 n         1 MOL     -0.814465
     94 C29        -0.9640    2.5910    2.9640 c3        1 MOL      0.073080
     95 C30        -1.7000    1.2950    2.7770 c         1 MOL      0.535634
     96 O16        -1.7520    0.6420    1.6950 o         1 MOL     -0.536131
     97 C31         0.4930    2.4170    2.6150 c3        1 MOL      0.424657
     98 C32         1.2200    3.7950    2.5670 c3        1 MOL     -0.202936
     99 C33         1.1700    1.4980    3.6310 c3        1 MOL     -0.518191
    100 C34         0.8960    4.8360    3.6790 c3        1 MOL     -0.391827
    101 H42        -1.9110    4.4540    2.7590 hn        1 MOL      0.352267
    102 H43        -0.9960    2.8840    4.0130 h1        1 MOL      0.066758
    103 H44         0.4890    1.9610    1.6300 hc        1 MOL     -0.258168
    104 H45         1.0780    4.2650    1.5910 hc        1 MOL      0.109294
    105 H46         2.2760    3.5720    2.4880 hc        1 MOL      0.109294
    106 H47         0.8470    0.4870    3.3910 hc        1 MOL      0.131480
    107 H48         2.2530    1.5660    3.5780 hc        1 MOL      0.131480
    108 H49         0.8540    1.8780    4.6040 hc        1 MOL      0.131480
    109 H50         1.4550    4.5470    4.5640 hc        1 MOL      0.115249
    110 H51         1.2920    5.7880    3.3300 hc        1 MOL      0.115249
    111 H52        -0.1670    4.9480    3.8900 hc        1 MOL      0.115249
    112 N10        -1.9910    0.6820    3.9580 n         1 MOL     -0.563176
    113 C35        -2.4370   -0.7980    3.9900 c3        1 MOL     -0.143174
    114 C36        -3.8420   -1.1470    3.4260 c         1 MOL      0.433309
    115 O17        -4.3070   -2.3270    3.5380 o         1 MOL     -0.552336
    116 C37        -2.3520   -1.3380    5.4580 c3        1 MOL      0.552511
    117 C38        -3.2290   -0.7770    6.5270 c3        1 MOL     -0.198865
    118 O18        -1.0270   -1.2800    5.9340 oh        1 MOL     -0.681155
    119 H53        -1.5890    1.1090    4.7750 hn        1 MOL      0.331032
    120 H54        -1.7420   -1.3590    3.3650 h1        1 MOL      0.136473
    121 H55        -2.6120   -2.4020    5.4630 h1        1 MOL     -0.028085
    122 H56        -0.4170   -1.8250    5.4390 ho        1 MOL      0.411127
    123 H57        -4.2920   -0.9920    6.4150 hc        1 MOL      0.052340
    124 H58        -2.9650   -1.2540    7.4750 hc        1 MOL      0.052340
    125 H59        -3.1430    0.3100    6.5500 hc        1 MOL      0.052340
    126 N11        -4.5480   -0.3100    2.6940 n         1 MOL     -0.242324
    127 C39        -5.9790   -0.4930    2.1790 c3        1 MOL     -0.070436
    128 C40        -5.9810   -0.9740    0.7170 c         1 MOL      0.684657
    129 O19        -5.3080   -0.3740   -0.1090 o         1 MOL     -0.567193
    130 C41        -6.8470    0.8260    2.1680 c3        1 MOL      0.410977
    131 C42        -8.3510    0.5770    1.9300 c3        1 MOL     -0.201419
    132 O20        -6.7740    1.4230    3.4200 oh        1 MOL     -0.631127
    133 H60        -3.9790    0.5030    2.5020 hn        1 MOL      0.174700
    134 H61        -6.5390   -1.2310    2.7620 h1        1 MOL      0.095732
    135 H62        -6.5400    1.4520    1.3370 h1        1 MOL     -0.044919
    136 H63        -6.0030    1.9750    3.5720 ho        1 MOL      0.393083
    137 H64        -8.5520    0.1800    0.9250 hc        1 MOL      0.050406
    138 H65        -8.6820   -0.1970    2.6090 hc        1 MOL      0.050406
    139 H66        -8.9390    1.4880    2.0430 hc        1 MOL      0.050406
    140 N12        -6.7840   -2.0180    0.4890 n         1 MOL     -0.629746
    141 C43        -6.9620   -2.6870   -0.8380 c3        1 MOL      0.357472
    142 C44        -5.6750   -2.9270   -1.7140 c         1 MOL      0.459776
    143 O21        -5.7050   -2.7150   -2.9150 o         1 MOL     -0.504680
    144 C45        -8.1520   -2.1820   -1.5890 c3        1 MOL     -0.525085
    145 C46        -9.5200   -2.2010   -0.9130 c3        1 MOL      0.230226
    146 C47       -10.5960   -1.4650   -1.7700 c3        1 MOL     -0.073567
    147 C48       -11.9770   -1.6700   -1.1990 c3        1 MOL      0.166098
    148 N13       -13.0270   -0.9960   -1.9870 n4        1 MOL     -0.106958
    149 H67        -7.3060   -2.4110    1.2530 hn        1 MOL      0.304591
    150 H68        -7.1100   -3.7360   -0.5890 h1        1 MOL      0.001322
    151 H69        -8.2780   -2.8610   -2.4340 hc        1 MOL      0.150869
    152 H70        -7.9230   -1.1900   -1.9650 hc        1 MOL      0.150869
    153 H71        -9.4400   -1.7300    0.0660 hc        1 MOL     -0.018662
    154 H72        -9.8580   -3.2050   -0.6570 hc        1 MOL     -0.018662
    155 H73       -10.5370   -1.8150   -2.8090 hc        1 MOL      0.028842
    156 H74       -10.3810   -0.3930   -1.6920 hc        1 MOL      0.028842
    157 H75       -12.0320   -1.2010   -0.2200 hx        1 MOL      0.006413
    158 H76       -12.2600   -2.7080   -1.0110 hx        1 MOL      0.006413
    159 H77       -13.7570   -0.5530   -1.4420 hn        1 MOL      0.166199
    160 H78       -12.6270   -0.2440   -2.5380 hn        1 MOL      0.166199
    161 H79       -13.4400   -1.6400   -2.6440 hn        1 MOL      0.166199
    162 N14        -4.6050   -3.1650   -0.9750 n         1 MOL     -0.507945
    163 C49        -3.2490   -3.2570   -1.5560 c3        1 MOL      0.408444
    164 C50        -2.0540   -2.7240   -0.7440 c         1 MOL      0.255566
    165 O22        -1.5480   -1.6480   -0.9440 o         1 MOL     -0.524452
    166 C51        -3.0310   -4.6660   -2.1070 c3        1 MOL     -0.032429
    167 C52        -3.7620   -4.8610   -3.4510 c3        1 MOL     -0.168363
    168 C53        -3.4060   -6.1490   -4.0630 c         1 MOL      0.696380
    169 O23        -3.9390   -7.2240   -3.6960 o         1 MOL     -0.611202
    170 O24        -2.5410   -6.1430   -4.9980 o         1 MOL     -0.611202
    171 H80        -4.7730   -3.2560    0.0150 hn        1 MOL      0.274793
    172 H81        -3.2950   -2.5750   -2.4000 h1        1 MOL      0.033722
    173 H82        -3.3810   -5.4060   -1.3790 hc        1 MOL      0.019295
    174 H83        -1.9490   -4.7930   -2.1880 hc        1 MOL      0.019295
    175 H84        -3.8450   -3.9610   -4.0550 hc        1 MOL      0.031477
    176 H85        -4.8080   -5.0070   -3.1630 hc        1 MOL      0.031477
    177 N15        -1.5660   -3.4020    0.3060 n         1 MOL     -0.153960
    178 C54        -1.9210   -4.7250    0.8070 c3        1 MOL     -0.106033
    179 H86        -2.4910   -5.2600    0.0470 h1        1 MOL      0.052230
    180 H87        -1.0120   -5.2820    1.0390 h1        1 MOL      0.052230
    181 H88        -2.5240   -4.6230    1.7090 h1        1 MOL      0.052230
    182 H89        -0.6660   -3.0320    0.5870 hn        1 MOL      0.239437
    183 Ca1        -0.5660    0.6650   -0.8170 Ca        1 MOL      1.713911
    184 O25         1.1760   -0.6520   -2.5600 oh        1 MOL     -0.794520
    185 H90         1.0970    0.2190   -2.9280 ho        1 MOL      0.376595
    186 H91         2.1050   -0.7460   -2.3510 ho        1 MOL      0.376595
    187 O26        -1.9390    0.1470   -3.4300 oh        1 MOL     -0.794520
    188 H92        -2.1240   -0.7080   -3.8290 ho        1 MOL      0.376595
    189 H93        -2.6360    0.7230   -3.7470 ho        1 MOL      0.376595
    190 O27        -3.1330    1.0940   -1.1330 oh        1 MOL     -0.794520
    191 H94        -3.4430    1.9790   -0.9470 ho        1 MOL      0.376595
    192 H95        -3.8780    0.5330   -0.9080 ho        1 MOL      0.376595
@<TRIPOS>BOND
     1    1    2 1   
     2    1    4 1   
     3    1    5 1   
     4    1    6 1   
     5    2    3 2   
     6    2    7 1   
     7    7    8 1   
     8    7   15 1   
     9    8    9 1   
    10    8   11 1   
    11    8   16 1   
    12    9   10 2   
    13    9   19 1   
    14   11   12 1   
    15   11   17 1   
    16   11   18 1   
    17   12   13 1   
    18   12   14 1   
    19   19   20 1   
    20   19   28 1   
    21   20   21 1   
    22   20   23 1   
    23   20   29 1   
    24   21   22 2   
    25   21   41 1   
    26   23   24 1   
    27   23   30 1   
    28   23   31 1   
    29   24   25 1   
    30   24   32 1   
    31   24   33 1   
    32   25   26 1   
    33   25   34 1   
    34   25   35 1   
    35   26   27 1   
    36   26   36 1   
    37   26   37 1   
    38   27   38 1   
    39   27   39 1   
    40   27   40 1   
    41   41   42 1   
    42   41   49 1   
    43   42   43 1   
    44   42   45 1   
    45   42   50 1   
    46   43   44 2   
    47   43   53 1   
    48   45   46 1   
    49   45   51 1   
    50   45   52 1   
    51   46   47 1   
    52   46   48 1   
    53   53   54 1   
    54   53   57 1   
    55   54   55 1   
    56   54   58 1   
    57   54   59 1   
    58   55   56 2   
    59   55   60 1   
    60   60   61 1   
    61   60   68 1   
    62   61   62 1   
    63   61   64 1   
    64   61   69 1   
    65   62   63 2   
    66   62   72 1   
    67   64   65 1   
    68   64   70 1   
    69   64   71 1   
    70   65   66 1   
    71   65   67 1   
    72   72   73 1   
    73   72   76 1   
    74   73   74 1   
    75   73   77 1   
    76   73   78 1   
    77   74   75 2   
    78   74   79 1   
    79   79   80 1   
    80   79   86 1   
    81   80   81 1   
    82   80   83 1   
    83   80   87 1   
    84   81   82 2   
    85   81   93 1   
    86   83   84 1   
    87   83   85 1   
    88   83   88 1   
    89   84   90 1   
    90   84   91 1   
    91   84   92 1   
    92   85   89 1   
    93   93   94 1   
    94   93  101 1   
    95   94   95 1   
    96   94   97 1   
    97   94  102 1   
    98   95   96 2   
    99   95  112 1   
   100   97   98 1   
   101   97   99 1   
   102   97  103 1   
   103   98  100 1   
   104   98  104 1   
   105   98  105 1   
   106   99  106 1   
   107   99  107 1   
   108   99  108 1   
   109  100  109 1   
   110  100  110 1   
   111  100  111 1   
   112  112  113 1   
   113  112  119 1   
   114  113  114 1   
   115  113  116 1   
   116  113  120 1   
   117  114  115 2   
   118  114  126 1   
   119  116  117 1   
   120  116  118 1   
   121  116  121 1   
   122  117  123 1   
   123  117  124 1   
   124  117  125 1   
   125  118  122 1   
   126  126  127 1   
   127  126  133 1   
   128  127  128 1   
   129  127  130 1   
   130  127  134 1   
   131  128  129 2   
   132  128  140 1   
   133  130  131 1   
   134  130  132 1   
   135  130  135 1   
   136  131  137 1   
   137  131  138 1   
   138  131  139 1   
   139  132  136 1   
   140  140  141 1   
   141  140  149 1   
   142  141  142 1   
   143  141  144 1   
   144  141  150 1   
   145  142  143 2   
   146  142  162 1   
   147  144  145 1   
   148  144  151 1   
   149  144  152 1   
   150  145  146 1   
   151  145  153 1   
   152  145  154 1   
   153  146  147 1   
   154  146  155 1   
   155  146  156 1   
   156  147  148 1   
   157  147  157 1   
   158  147  158 1   
   159  148  159 1   
   160  148  160 1   
   161  148  161 1   
   162  162  163 1   
   163  162  171 1   
   164  163  164 1   
   165  163  166 1   
   166  163  172 1   
   167  164  165 2   
   168  164  177 1   
   169  166  167 1   
   170  166  173 1   
   171  166  174 1   
   172  167  168 1   
   173  167  175 1   
   174  167  176 1   
   175  168  169 1   
   176  168  170 1   
   177  177  178 1   
   178  177  182 1   
   179  178  179 1   
   180  178  180 1   
   181  178  181 1   
   182  184  185 1   
   183  184  186 1   
   184  187  188 1   
   185  187  189 1   
   186  190  191 1   
   187  190  192 1   
@<TRIPOS>SUBSTRUCTURE
     1 MOL         1 TEMP              0 ****  ****    0 ROOT
