@<TRIPOS>MOLECULE
MOL
  192   187     1     0     0
SMALL
resp


@<TRIPOS>ATOM
      1 C1         -6.1590   -4.7450    2.5820 c3        1 MOL     -0.029689
      2 C2         -4.8600   -4.0320    1.9960 c         1 MOL      0.650265
      3 O1         -4.4390   -3.1530    2.6970 o         1 MOL     -0.523908
      4 H1         -7.0460   -4.3450    2.0900 hc        1 MOL     -0.017377
      5 H2         -6.0980   -5.8180    2.4010 hc        1 MOL     -0.017377
      6 H3         -6.2240   -4.5590    3.6540 hc        1 MOL     -0.017377
      7 N1         -4.2870   -4.4210    0.8870 n         1 MOL     -0.826199
      8 C3         -3.1770   -3.7950    0.1360 c3        1 MOL      0.041261
      9 C4         -1.7750   -3.7020    0.8050 c         1 MOL      0.594961
     10 O2         -0.9550   -2.8000    0.5770 o         1 MOL     -0.588804
     11 C5         -3.6840   -2.4630   -0.4240 c3        1 MOL     -0.142803
     12 C6         -5.0900   -2.5830   -0.9460 c         1 MOL      0.439249
     13 O3         -5.3470   -3.3630   -1.8690 o         1 MOL     -0.579759
     14 O4         -5.9500   -1.7820   -0.4060 o         1 MOL     -0.579759
     15 H4         -4.5980   -5.3230    0.5590 hn        1 MOL      0.388523
     16 H5         -2.9570   -4.4290   -0.7190 h1        1 MOL      0.100003
     17 H6         -2.9890   -2.0720   -1.1780 hc        1 MOL      0.113831
     18 H7         -3.6160   -1.6590    0.3110 hc        1 MOL      0.113831
     19 N2         -1.4830   -4.5920    1.7780 n         1 MOL     -0.422290
     20 C7         -0.1550   -4.8790    2.3520 c3        1 MOL     -0.031797
     21 C8          0.4890   -6.1050    1.7140 c         1 MOL      0.465688
     22 O5          0.0830   -7.1880    1.9270 o         1 MOL     -0.577059
     23 C9         -0.2850   -5.1330    3.8890 c3        1 MOL      0.186214
     24 C10        -1.3140   -4.1650    4.5830 c3        1 MOL      0.002180
     25 C11         1.0980   -5.0620    4.5510 c3        1 MOL     -0.244703
     26 C12        -1.3340   -3.9260    6.0370 c3        1 MOL     -0.382816
     27 H8         -2.2140   -5.2180    2.0910 hn        1 MOL      0.289988
     28 H9          0.5150   -4.0320    2.1860 h1        1 MOL     -0.002865
     29 H10        -0.7510   -6.0880    4.1400 hc        1 MOL     -0.045036
     30 H11        -2.3580   -4.4300    4.3780 hc        1 MOL      0.082399
     31 H12        -1.2280   -3.1910    4.0860 hc        1 MOL      0.082399
     32 H13         1.7140   -5.9010    4.2230 hc        1 MOL      0.062513
     33 H14         1.5540   -4.1020    4.3090 hc        1 MOL      0.062513
     34 H15         1.1040   -4.9360    5.6390 hc        1 MOL      0.062513
     35 H16        -2.1650   -3.3170    6.3990 hc        1 MOL      0.088908
     36 H17        -1.2990   -4.8440    6.6210 hc        1 MOL      0.088908
     37 H18        -0.4090   -3.3820    6.2470 hc        1 MOL      0.088908
     38 N3          1.5250   -5.9630    0.8970 n         1 MOL     -0.173783
     39 C13         2.1790   -4.7810    0.3490 c3        1 MOL     -0.142853
     40 C14         2.6460   -5.0530   -1.1420 c         1 MOL      0.489334
     41 O6          3.0670   -6.1690   -1.3770 o         1 MOL     -0.490481
     42 C15         3.3050   -4.3240    1.2410 c3        1 MOL     -0.212232
     43 C16         3.9250   -3.1100    0.5890 c         1 MOL      0.736479
     44 O7          4.7540   -3.2300   -0.3140 o         1 MOL     -0.650267
     45 O8          3.4370   -2.0130    0.8650 o         1 MOL     -0.650267
     46 H19         1.8310   -6.8460    0.5060 hn        1 MOL      0.210206
     47 H20         1.4470   -3.9770    0.4020 h1        1 MOL      0.088547
     48 H21         4.0660   -5.1090    1.2760 hc        1 MOL      0.043036
     49 H22         3.0280   -4.1350    2.2860 hc        1 MOL      0.043036
     50 N4          2.5000   -4.0870   -2.1030 n         1 MOL     -0.352161
     51 C17         2.6780   -4.2910   -3.5540 c3        1 MOL     -0.216380
     52 C18         3.9780   -3.5420   -4.0260 c         1 MOL      0.718031
     53 O9          4.3810   -3.8490   -5.1770 o         1 MOL     -0.645303
     54 H23         2.3130   -3.1430   -1.8010 hn        1 MOL      0.309235
     55 H24         1.8740   -3.7780   -4.0910 h1        1 MOL      0.111886
     56 H25         2.8390   -5.3400   -3.7850 h1        1 MOL      0.111886
     57 N5          4.6520   -2.6860   -3.2830 n         1 MOL     -0.555869
     58 C19         5.7180   -1.7780   -3.7230 c3        1 MOL      0.075424
     59 C20         6.8690   -1.4440   -2.7270 c         1 MOL      0.349497
     60 O10         7.9090   -0.9300   -3.1210 o         1 MOL     -0.550393
     61 C21         5.1730   -0.3820   -4.1710 c3        1 MOL     -0.201492
     62 C22         4.2380    0.2250   -3.0830 c         1 MOL      0.744056
     63 O11         4.7550    0.8820   -2.1840 o         1 MOL     -0.701844
     64 O12         3.0170    0.0260   -3.2280 o         1 MOL     -0.701844
     65 H26         4.3910   -2.6530   -2.3060 hn        1 MOL      0.352868
     66 H27         6.1930   -2.1010   -4.6500 h1        1 MOL      0.097519
     67 H28         4.5870   -0.5440   -5.0750 hc        1 MOL      0.031213
     68 H29         5.9840    0.3250   -4.3460 hc        1 MOL      0.031213
     69 N6          6.7980   -1.8320   -1.4060 n         1 MOL     -0.116265
     70 C23         7.8390   -1.4790   -0.4400 c3        1 MOL     -0.368489
     71 C24         8.1070    0.0270   -0.0330 c         1 MOL      0.567455
     72 O13         8.9400    0.3030    0.7870 o         1 MOL     -0.599060
     73 H30         5.9560   -2.2760   -1.0650 hn        1 MOL      0.156716
     74 H31         8.7720   -1.9260   -0.7780 h1        1 MOL      0.134323
     75 H32         7.5370   -2.0040    0.4730 h1        1 MOL      0.134323
     76 N7          7.3060    0.9960   -0.5890 n         1 MOL     -0.016039
     77 C25         7.3760    2.4790   -0.4850 c3        1 MOL      0.140662
     78 C26         7.1520    2.9960    0.9700 c         1 MOL      0.536883
     79 O14         7.8000    3.9110    1.3180 o         1 MOL     -0.524505
     80 C27         8.5360    3.0950   -1.1980 c3        1 MOL      0.098995
     81 C28         8.5810    2.5700   -2.6310 c3        1 MOL     -0.141414
     82 C29         9.5780    3.2750   -3.5660 c         1 MOL      0.629097
     83 N8          9.6860    2.9480   -4.7560 n         1 MOL     -0.688807
     84 O15        10.1630    4.3020   -3.2880 o         1 MOL     -0.596323
     85 H33         6.5350    0.6070   -1.1230 hn        1 MOL      0.101802
     86 H34         6.5520    2.7820   -1.1320 h1        1 MOL      0.035519
     87 H35         9.4710    2.9220   -0.6480 hc        1 MOL     -0.035903
     88 H36         8.3350    4.1670   -1.1730 hc        1 MOL     -0.035903
     89 H37         7.5570    2.5550   -3.0040 hc        1 MOL      0.030562
     90 H38         8.8690    1.5250   -2.5670 hc        1 MOL      0.030562
     91 H39         9.2060    2.0840   -4.9620 hn        1 MOL      0.313980
     92 H40        10.6070    3.1410   -5.1280 hn        1 MOL      0.313980
     93 N9          6.2830    2.3390    1.7550 n         1 MOL     -0.572975
     94 C30         6.0990    2.6440    3.2730 c3        1 MOL     -0.002207
     95 C31         4.6470    2.5210    3.6900 c         1 MOL      0.496489
     96 O16         4.2430    2.7140    4.7760 o         1 MOL     -0.570788
     97 C32         6.9590    1.7750    4.2050 c3        1 MOL      0.360116
     98 C33         6.5380    0.3060    4.1650 c3        1 MOL     -0.323052
     99 C34         8.4280    1.9290    3.7990 c3        1 MOL     -0.323052
    100 H41         5.7210    1.6160    1.3370 hn        1 MOL      0.246297
    101 H42         6.4610    3.6430    3.4830 h1        1 MOL      0.094770
    102 H43         6.9120    2.1760    5.2120 hc        1 MOL     -0.067587
    103 H44         6.3460    0.0640    3.1160 hc        1 MOL      0.069326
    104 H45         7.2630   -0.3670    4.6360 hc        1 MOL      0.069326
    105 H46         5.6130    0.1930    4.7210 hc        1 MOL      0.069326
    106 H47         8.6410    2.9910    3.9200 hc        1 MOL      0.069326
    107 H48         9.1320    1.3680    4.4270 hc        1 MOL      0.069326
    108 H49         8.6460    1.5500    2.8060 hc        1 MOL      0.069326
    109 N10         3.8070    2.1250    2.7440 n         1 MOL     -0.438309
    110 C35         2.3450    1.8080    2.9080 c3        1 MOL      0.352573
    111 C36         1.5970    2.0840    1.6340 c         1 MOL      0.342455
    112 O17         2.2610    2.2330    0.5990 o         1 MOL     -0.474632
    113 C37         2.3210    0.3080    3.3530 c3        1 MOL     -0.275314
    114 C38         1.0130   -0.3580    3.2200 c         1 MOL      0.592050
    115 N11         0.9520   -1.4270    2.3610 n         1 MOL     -0.765960
    116 O18        -0.0080   -0.0230    3.8380 o         1 MOL     -0.594367
    117 H50         4.2320    1.9740    1.8370 hn        1 MOL      0.266141
    118 H51         1.9090    2.4270    3.6940 h1        1 MOL      0.015496
    119 H52         2.7020    0.1500    4.3680 hc        1 MOL      0.098227
    120 H53         3.0370   -0.2000    2.7140 hc        1 MOL      0.098227
    121 H54         1.7910   -1.6370    1.8410 hn        1 MOL      0.388806
    122 H55         0.0800   -1.8810    2.1190 hn        1 MOL      0.388806
    123 N12         0.2670    2.0500    1.5740 n         1 MOL     -0.471366
    124 C39        -0.6290    2.0480    0.4360 c3        1 MOL      0.243738
    125 C40        -1.7840    3.1000    0.6230 c         1 MOL      0.659724
    126 O19        -2.5550    2.9080    1.5670 o         1 MOL     -0.623068
    127 C41        -1.1730    0.6630    0.2200 c3        1 MOL     -0.029852
    128 C42        -2.0480    0.5670   -1.0180 ca        1 MOL     -0.156576
    129 C43        -1.6100   -0.0100   -2.2260 ca        1 MOL     -0.006203
    130 C44        -3.3870    0.8510   -0.8310 ca        1 MOL     -0.006203
    131 C45        -2.4130   -0.1430   -3.3870 ca        1 MOL     -0.310211
    132 C46        -4.2280    0.5640   -1.8920 ca        1 MOL     -0.310211
    133 C47        -3.7820    0.1150   -3.2270 ca        1 MOL      0.267725
    134 O20        -4.5910    0.0600   -4.3170 oh        1 MOL     -0.383681
    135 H56        -0.1470    1.9390    2.4960 hn        1 MOL      0.256077
    136 H57         0.0070    2.2910   -0.4040 h1        1 MOL      0.030764
    137 H58        -1.7120    0.3130    1.1070 hc        1 MOL      0.095671
    138 H59        -0.2860    0.0680    0.0150 hc        1 MOL      0.095671
    139 H60        -0.5530   -0.2330   -2.2160 ha        1 MOL      0.106874
    140 H61        -3.7950    1.1380    0.1240 ha        1 MOL      0.106874
    141 H62        -1.9010   -0.3500   -4.3120 ha        1 MOL      0.147410
    142 H63        -5.2970    0.6740   -1.8570 ha        1 MOL      0.147410
    143 H64        -4.1400   -0.0630   -5.1560 ho        1 MOL      0.343578
    144 N13        -1.8780    4.1370   -0.2340 n         1 MOL     -0.807112
    145 C48        -2.8410    5.2390   -0.0390 c3        1 MOL      0.454036
    146 C49        -3.9190    5.2870   -1.1570 c         1 MOL      0.631148
    147 O21        -3.6280    5.6430   -2.2620 o         1 MOL     -0.578362
    148 C50        -2.2130    6.6180    0.1930 c3        1 MOL      0.078269
    149 C51        -3.2340    7.7060    0.7320 c3        1 MOL     -0.330346
    150 C52        -3.6480    8.8220   -0.2410 c         1 MOL      0.696830
    151 O22        -2.8070    9.4090   -0.9780 o         1 MOL     -0.647092
    152 O23        -4.8510    9.1790   -0.2780 o         1 MOL     -0.647092
    153 H65        -1.2270    4.1810   -1.0030 hn        1 MOL      0.356035
    154 H66        -3.4820    5.1030    0.8310 h1        1 MOL     -0.042604
    155 H67        -1.6880    6.9440   -0.6940 hc        1 MOL     -0.022583
    156 H68        -1.4700    6.4270    0.9760 hc        1 MOL     -0.022583
    157 H69        -2.7930    8.0740    1.6460 hc        1 MOL      0.072519
    158 H70        -4.1160    7.2040    1.1330 hc        1 MOL      0.072519
    159 N14        -5.1880    4.8260   -0.9770 n         1 MOL     -0.615464
    160 C53        -5.6580    3.9800    0.1330 c3        1 MOL      0.113144
    161 C54        -5.8860    4.6090    1.5160 c         1 MOL      0.488018
    162 O24        -6.2630    5.7840    1.5240 o         1 MOL     -0.526499
    163 C55        -6.7890    3.1240   -0.4620 c3        1 MOL     -0.015627
    164 C56        -7.2610    1.8750    0.3160 c3        1 MOL     -0.150920
    165 C57        -8.3070    1.0350   -0.3990 c         1 MOL      0.709812
    166 O25        -8.0300    0.1930   -1.2910 o         1 MOL     -0.662119
    167 O26        -9.4230    1.1990    0.0720 o         1 MOL     -0.662119
    168 H71        -5.7840    4.9620   -1.7820 hn        1 MOL      0.318766
    169 H72        -4.8520    3.2530    0.2720 h1        1 MOL      0.040827
    170 H73        -6.6900    2.7350   -1.4760 hc        1 MOL      0.023724
    171 H74        -7.7010    3.7200   -0.4310 hc        1 MOL      0.023724
    172 H75        -7.5300    2.1070    1.3440 hc        1 MOL     -0.002200
    173 H76        -6.3850    1.2400    0.4750 hc        1 MOL     -0.002200
    174 N15        -5.6950    3.8570    2.6100 n         1 MOL     -0.243627
    175 C58        -5.8770    4.1500    4.0580 c3        1 MOL     -0.204417
    176 H77        -4.9010    4.2490    4.5330 h1        1 MOL      0.093356
    177 H78        -6.4320    5.0810    4.1740 h1        1 MOL      0.093356
    178 H79        -6.4290    3.3360    4.5280 h1        1 MOL      0.093356
    179 H80        -5.5440    2.8790    2.4370 hn        1 MOL      0.278181
    180 Ca1        -8.0150   -2.5120   -1.7600 Ca        1 MOL      1.579761
    181 O27        -9.9330   -1.3330   -3.2470 oh        1 MOL     -0.861678
    182 H81       -10.7040   -1.8910   -3.3030 ho        1 MOL      0.385512
    183 H82       -10.1910   -0.5070   -3.6660 ho        1 MOL      0.385512
    184 O28        -7.7230   -4.4130   -3.4340 oh        1 MOL     -0.861678
    185 H83        -8.5290   -4.8090   -3.7530 ho        1 MOL      0.385512
    186 H84        -7.0230   -4.9150   -3.8560 ho        1 MOL      0.385512
    187 O29       -10.1730   -1.3170   -0.0910 oh        1 MOL     -0.861678
    188 H85        -9.7780   -0.4670   -0.2630 ho        1 MOL      0.385512
    189 H86       -11.0870   -1.2360   -0.3680 ho        1 MOL      0.385512
    190 O30        -6.6720   -1.4320   -3.8200 oh        1 MOL     -0.861678
    191 H87        -5.7690   -1.1200   -3.7410 ho        1 MOL      0.385512
    192 H88        -6.8830   -1.3220   -4.7430 ho        1 MOL      0.385512
@<TRIPOS>BOND
     1    1    2 1   
     2    1    4 1   
     3    1    5 1   
     4    1    6 1   
     5    2    3 2   
     6    2    7 1   
     7    7    8 1   
     8    7   15 1   
     9    8    9 1   
    10    8   11 1   
    11    8   16 1   
    12    9   10 2   
    13    9   19 1   
    14   11   12 1   
    15   11   17 1   
    16   11   18 1   
    17   12   13 1   
    18   12   14 1   
    19   19   20 1   
    20   19   27 1   
    21   20   21 1   
    22   20   23 1   
    23   20   28 1   
    24   21   22 2   
    25   21   38 1   
    26   23   24 1   
    27   23   25 1   
    28   23   29 1   
    29   24   26 1   
    30   24   30 1   
    31   24   31 1   
    32   25   32 1   
    33   25   33 1   
    34   25   34 1   
    35   26   35 1   
    36   26   36 1   
    37   26   37 1   
    38   38   39 1   
    39   38   46 1   
    40   39   40 1   
    41   39   42 1   
    42   39   47 1   
    43   40   41 2   
    44   40   50 1   
    45   42   43 1   
    46   42   48 1   
    47   42   49 1   
    48   43   44 1   
    49   43   45 1   
    50   50   51 1   
    51   50   54 1   
    52   51   52 1   
    53   51   55 1   
    54   51   56 1   
    55   52   53 2   
    56   52   57 1   
    57   57   58 1   
    58   57   65 1   
    59   58   59 1   
    60   58   61 1   
    61   58   66 1   
    62   59   60 2   
    63   59   69 1   
    64   61   62 1   
    65   61   67 1   
    66   61   68 1   
    67   62   63 1   
    68   62   64 1   
    69   69   70 1   
    70   69   73 1   
    71   70   71 1   
    72   70   74 1   
    73   70   75 1   
    74   71   72 2   
    75   71   76 1   
    76   76   77 1   
    77   76   85 1   
    78   77   78 1   
    79   77   80 1   
    80   77   86 1   
    81   78   79 2   
    82   78   93 1   
    83   80   81 1   
    84   80   87 1   
    85   80   88 1   
    86   81   82 1   
    87   81   89 1   
    88   81   90 1   
    89   82   83 1   
    90   82   84 2   
    91   83   91 1   
    92   83   92 1   
    93   93   94 1   
    94   93  100 1   
    95   94   95 1   
    96   94   97 1   
    97   94  101 1   
    98   95   96 2   
    99   95  109 1   
   100   97   98 1   
   101   97   99 1   
   102   97  102 1   
   103   98  103 1   
   104   98  104 1   
   105   98  105 1   
   106   99  106 1   
   107   99  107 1   
   108   99  108 1   
   109  109  110 1   
   110  109  117 1   
   111  110  111 1   
   112  110  113 1   
   113  110  118 1   
   114  111  112 2   
   115  111  123 1   
   116  113  114 1   
   117  113  119 1   
   118  113  120 1   
   119  114  115 1   
   120  114  116 2   
   121  115  121 1   
   122  115  122 1   
   123  123  124 1   
   124  123  135 1   
   125  124  125 1   
   126  124  127 1   
   127  124  136 1   
   128  125  126 2   
   129  125  144 1   
   130  127  128 1   
   131  127  137 1   
   132  127  138 1   
   133  128  129 ar  
   134  128  130 ar  
   135  129  131 ar  
   136  129  139 1   
   137  130  132 ar  
   138  130  140 1   
   139  131  133 ar  
   140  131  141 1   
   141  132  133 ar  
   142  132  142 1   
   143  133  134 1   
   144  134  143 1   
   145  144  145 1   
   146  144  153 1   
   147  145  146 1   
   148  145  148 1   
   149  145  154 1   
   150  146  147 2   
   151  146  159 1   
   152  148  149 1   
   153  148  155 1   
   154  148  156 1   
   155  149  150 1   
   156  149  157 1   
   157  149  158 1   
   158  150  151 1   
   159  150  152 1   
   160  159  160 1   
   161  159  168 1   
   162  160  161 1   
   163  160  163 1   
   164  160  169 1   
   165  161  162 2   
   166  161  174 1   
   167  163  164 1   
   168  163  170 1   
   169  163  171 1   
   170  164  165 1   
   171  164  172 1   
   172  164  173 1   
   173  165  166 1   
   174  165  167 1   
   175  174  175 1   
   176  174  179 1   
   177  175  176 1   
   178  175  177 1   
   179  175  178 1   
   180  181  182 1   
   181  181  183 1   
   182  184  185 1   
   183  184  186 1   
   184  187  188 1   
   185  187  189 1   
   186  190  191 1   
   187  190  192 1   
@<TRIPOS>SUBSTRUCTURE
     1 MOL         1 TEMP              0 ****  ****    0 ROOT
