@<TRIPOS>MOLECULE
MOL
  189   185     1     0     0
SMALL
resp


@<TRIPOS>ATOM
      1 C1          4.3870    3.8480   -3.8410 c3        1 MOL     -0.387419
      2 C2          5.1200    3.2090   -2.6010 c         1 MOL      0.840655
      3 O1          4.5650    3.0350   -1.5790 o         1 MOL     -0.726188
      4 H1          5.0210    4.6190   -4.2790 hc        1 MOL      0.092713
      5 H2          4.1890    3.0750   -4.5830 hc        1 MOL      0.092713
      6 H3          3.4460    4.2920   -3.5170 hc        1 MOL      0.092713
      7 N1          6.4030    2.8990   -2.8030 n         1 MOL     -0.655792
      8 C3          7.1520    1.9680   -1.9100 c3        1 MOL      0.239513
      9 C4          6.4360    0.7040   -1.5080 c         1 MOL      0.414101
     10 O2          6.0100    0.5850   -0.3660 o         1 MOL     -0.488510
     11 C5          7.9250    2.7500   -0.8090 c3        1 MOL     -0.201395
     12 C6          7.1130    3.7610   -0.1890 c         1 MOL      0.822352
     13 O3          6.3120    3.3390    0.7040 o         1 MOL     -0.761613
     14 O4          7.3920    5.0000   -0.3910 o         1 MOL     -0.761613
     15 H4          6.7350    3.0880   -3.7350 hn        1 MOL      0.312275
     16 H5          7.9880    1.6270   -2.5240 h1        1 MOL      0.010592
     17 H6          8.7200    3.3290   -1.2850 hc        1 MOL      0.041299
     18 H7          8.3060    2.0750   -0.0410 hc        1 MOL      0.041299
     19 N2          6.2960   -0.1120   -2.5800 n         1 MOL     -0.459824
     20 C7          5.7200   -1.3900   -2.7630 c3        1 MOL      0.093824
     21 C8          6.4210   -2.5380   -2.0390 c         1 MOL      0.415591
     22 O5          6.9520   -3.4780   -2.6060 o         1 MOL     -0.537109
     23 C9          4.1710   -1.3890   -2.6370 c3        1 MOL      0.292122
     24 C10         3.3560   -2.6290   -3.0220 c3        1 MOL      0.054955
     25 C11         3.5210   -0.1370   -3.4450 c3        1 MOL     -0.243354
     26 C12         3.5350   -3.2700   -4.4480 c3        1 MOL     -0.347158
     27 H8          6.5190    0.3820   -3.4360 hn        1 MOL      0.254262
     28 H9          5.7980   -1.5710   -3.8300 h1        1 MOL      0.005037
     29 H10         3.9140   -1.2200   -1.5920 hc        1 MOL     -0.120950
     30 H11         2.3230   -2.4590   -2.7400 hc        1 MOL      0.028396
     31 H12         3.7320   -3.3580   -2.2990 hc        1 MOL      0.028396
     32 H13         3.6900   -0.1990   -4.5140 hc        1 MOL      0.041185
     33 H14         2.4430   -0.1740   -3.2960 hc        1 MOL      0.041185
     34 H15         3.8880    0.8040   -3.0530 hc        1 MOL      0.041185
     35 H16         3.1260   -4.2820   -4.4820 hc        1 MOL      0.070747
     36 H17         3.0470   -2.5970   -5.1610 hc        1 MOL      0.070747
     37 H18         4.6120   -3.3790   -4.5570 hc        1 MOL      0.070747
     38 N3          6.4910   -2.3720   -0.7000 n         1 MOL     -0.244778
     39 C13         7.1880   -3.3070    0.1990 c3        1 MOL      0.066155
     40 C14         6.4140   -4.6890    0.3540 c         1 MOL      0.524062
     41 O6          7.0580   -5.7210    0.1880 o         1 MOL     -0.597486
     42 C15         7.4810   -2.6100    1.5750 c3        1 MOL     -0.311533
     43 C16         8.2870   -1.3190    1.4940 c         1 MOL      0.854123
     44 O7          7.8630   -0.2750    1.9550 o         1 MOL     -0.753607
     45 O8          9.4150   -1.3580    0.9400 o         1 MOL     -0.753607
     46 H19         6.0290   -1.5940   -0.2470 hn        1 MOL      0.303158
     47 H20         8.2110   -3.5160   -0.1140 h1        1 MOL      0.060555
     48 H21         8.0160   -3.3700    2.1510 hc        1 MOL      0.068623
     49 H22         6.5280   -2.3470    2.0450 hc        1 MOL      0.068623
     50 N4          5.1330   -4.7940    0.4430 n         1 MOL     -0.408924
     51 C17         4.0050   -3.8750    0.7370 c3        1 MOL      0.235188
     52 C18         3.0000   -4.3370    1.7360 c         1 MOL      0.554584
     53 O9          2.7370   -5.5140    1.8180 o         1 MOL     -0.614703
     54 H23         4.8010   -5.7410    0.3650 hn        1 MOL      0.257225
     55 H24         3.4650   -3.6640   -0.1760 h1        1 MOL     -0.063053
     56 H25         4.4180   -2.9210    1.0810 h1        1 MOL     -0.063053
     57 N5          2.4510   -3.5370    2.5770 n         1 MOL     -0.363465
     58 C19         2.5410   -2.0850    2.8490 c3        1 MOL      0.004782
     59 C20         2.4850   -1.2120    1.5770 c         1 MOL      0.671941
     60 O10         3.4790   -0.6320    1.2000 o         1 MOL     -0.676673
     61 C21         3.6340   -1.6690    3.8310 c3        1 MOL     -0.341439
     62 C22         3.4570   -2.5160    5.0830 c         1 MOL      0.840900
     63 O11         2.5910   -2.3050    5.9440 o         1 MOL     -0.762101
     64 O12         4.3320   -3.3560    5.3100 o         1 MOL     -0.762101
     65 H26         1.8850   -4.0880    3.2050 hn        1 MOL      0.267082
     66 H27         1.6070   -1.8180    3.3420 h1        1 MOL      0.005644
     67 H28         3.5820   -0.6180    4.0890 hc        1 MOL      0.086851
     68 H29         4.5630   -1.9040    3.2990 hc        1 MOL      0.086851
     69 N6          1.4120   -1.0900    0.8600 n         1 MOL     -0.384616
     70 C23         0.0090   -1.4310    1.2810 c3        1 MOL      0.041455
     71 C24        -0.5020   -2.7630    0.6760 c         1 MOL      0.514201
     72 O13         0.2300   -3.2900   -0.1130 o         1 MOL     -0.494826
     73 H30         1.5160   -0.6290   -0.0310 hn        1 MOL      0.274829
     74 H31        -0.6240   -0.5850    1.0150 h1        1 MOL      0.053990
     75 H32        -0.1390   -1.5510    2.3630 h1        1 MOL      0.053990
     76 N7         -1.6950   -3.2390    1.0180 n         1 MOL     -0.456160
     77 C25        -2.3950   -4.3720    0.4690 c3        1 MOL     -0.055845
     78 C26        -3.1300   -4.3580   -0.9110 c         1 MOL      0.440656
     79 O14        -3.4410   -5.3870   -1.5280 o         1 MOL     -0.500821
     80 C27        -3.2620   -4.9060    1.5990 c3        1 MOL      0.058204
     81 C28        -4.3120   -3.9890    2.2060 c3        1 MOL     -0.349609
     82 C29        -5.4110   -3.5130    1.2540 c         1 MOL      0.664232
     83 N8         -6.1910   -4.4050    0.7700 n         1 MOL     -0.746878
     84 O15        -5.4780   -2.3780    0.7850 o         1 MOL     -0.549934
     85 H33        -2.3050   -2.6540    1.5710 hn        1 MOL      0.254806
     86 H34        -1.6770   -5.1780    0.3180 h1        1 MOL      0.148022
     87 H35        -2.7560   -5.3370    2.4590 hc        1 MOL      0.031975
     88 H36        -3.6900   -5.7980    1.1630 hc        1 MOL      0.031975
     89 H37        -3.8760   -3.1020    2.6620 hc        1 MOL      0.121798
     90 H38        -4.7590   -4.5960    3.0010 hc        1 MOL      0.121798
     91 H39        -6.2140   -5.3930    0.9600 hn        1 MOL      0.367768
     92 H40        -6.8420   -4.0540    0.0800 hn        1 MOL      0.367768
     93 N9         -3.3430   -3.1130   -1.4740 n         1 MOL     -0.253671
     94 C30        -3.7080   -2.9060   -2.8800 c3        1 MOL     -0.102167
     95 C31        -4.9110   -1.9750   -3.0300 c         1 MOL      0.471532
     96 O16        -5.3300   -1.6390   -4.1490 o         1 MOL     -0.572826
     97 C32        -2.5520   -2.4150   -3.7340 c3        1 MOL      0.017284
     98 C33        -1.4510   -3.5380   -3.6680 c3        1 MOL     -0.134749
     99 C34        -1.7750   -1.1960   -3.1720 c3        1 MOL     -0.134749
    100 H41        -3.2560   -2.2690   -0.9260 hn        1 MOL      0.246109
    101 H42        -4.0690   -3.8240   -3.3380 h1        1 MOL      0.140984
    102 H43        -2.7790   -2.2950   -4.7870 hc        1 MOL      0.054166
    103 H44        -1.1860   -3.7420   -2.6340 hc        1 MOL      0.043119
    104 H45        -1.7910   -4.4810   -4.1010 hc        1 MOL      0.043119
    105 H46        -0.5660   -3.3770   -4.2820 hc        1 MOL      0.043119
    106 H47        -2.3260   -0.2670   -3.1060 hc        1 MOL      0.043119
    107 H48        -1.4580   -1.3610   -2.1400 hc        1 MOL      0.043119
    108 H49        -0.9050   -0.9130   -3.7560 hc        1 MOL      0.043119
    109 N10        -5.6390   -1.6110   -1.9950 n         1 MOL     -0.265718
    110 C35        -6.9270   -0.8970   -1.9670 c3        1 MOL      0.040893
    111 C36        -6.9280    0.4570   -1.2150 c         1 MOL      0.513310
    112 O17        -7.9500    1.1400   -1.2530 o         1 MOL     -0.558225
    113 C37        -7.9750   -1.7880   -1.2830 c3        1 MOL     -0.254112
    114 C38        -8.2640   -3.0820   -1.8630 c         1 MOL      0.601657
    115 N11        -8.5440   -3.1490   -3.1260 n         1 MOL     -0.696125
    116 O18        -8.3060   -4.1550   -1.2530 o         1 MOL     -0.574831
    117 H50        -5.2430   -1.8610   -1.0980 hn        1 MOL      0.169070
    118 H51        -7.3140   -0.6690   -2.9560 h1        1 MOL      0.075931
    119 H52        -8.9400   -1.2720   -1.3250 hc        1 MOL      0.113727
    120 H53        -7.5220   -2.0140   -0.3190 hc        1 MOL      0.113727
    121 H54        -8.7560   -2.3210   -3.6650 hn        1 MOL      0.346477
    122 H55        -8.6380   -4.0730   -3.5330 hn        1 MOL      0.346477
    123 N12        -5.9050    0.7800   -0.4240 n         1 MOL     -0.434110
    124 C39        -5.9240    1.9600    0.4610 c3        1 MOL      0.316413
    125 C40        -4.6240    2.7570    0.5370 c         1 MOL      0.238593
    126 O19        -3.5450    2.2000    0.4260 o         1 MOL     -0.445134
    127 C41        -6.2250    1.4890    1.8700 c3        1 MOL     -0.167575
    128 C42        -7.5540    0.7770    2.0610 ca        1 MOL     -0.051904
    129 C43        -8.7190    1.5000    1.8520 ca        1 MOL     -0.072147
    130 C44        -7.5610   -0.5850    2.3480 ca        1 MOL     -0.072147
    131 C45        -9.9380    0.8720    1.8630 ca        1 MOL     -0.277856
    132 C46        -8.8080   -1.2680    2.3910 ca        1 MOL     -0.277856
    133 C47       -10.0090   -0.4870    2.1510 ca        1 MOL      0.347049
    134 O20       -11.1860   -0.9370    2.4520 oh        1 MOL     -0.498012
    135 H56        -5.1780    0.0810   -0.3470 hn        1 MOL      0.225355
    136 H57        -6.6540    2.6840    0.1010 h1        1 MOL      0.021349
    137 H58        -6.1910    2.3420    2.5590 hc        1 MOL      0.088510
    138 H59        -5.4270    0.8130    2.1600 hc        1 MOL      0.088510
    139 H60        -8.7270    2.5760    1.7250 ha        1 MOL      0.104140
    140 H61        -6.6590   -1.1140    2.6130 ha        1 MOL      0.104140
    141 H62       -10.8590    1.3950    1.6290 ha        1 MOL      0.131848
    142 H63        -8.8060   -2.3130    2.6460 ha        1 MOL      0.131848
    143 H64       -11.8910   -0.2960    2.3440 ho        1 MOL      0.370501
    144 N13        -4.7170    4.0920    0.7400 n         1 MOL     -0.432742
    145 C48        -3.7190    5.0940    1.1060 c3        1 MOL     -0.039839
    146 C49        -2.5730    5.4220    0.1000 c         1 MOL      0.377278
    147 O21        -2.2030    6.5680   -0.0960 o         1 MOL     -0.510008
    148 C50        -3.0750    4.6100    2.5440 c3        1 MOL      0.250052
    149 C51        -2.5170    5.8560    3.2630 c3        1 MOL     -0.336820
    150 C52        -1.4470    5.5150    4.3170 c         1 MOL      0.676530
    151 O22        -1.6780    5.6960    5.5720 o         1 MOL     -0.710619
    152 O23        -0.3050    5.0200    3.9840 o         1 MOL     -0.710619
    153 H65        -5.6780    4.3750    0.6330 hn        1 MOL      0.283007
    154 H66        -4.2280    6.0270    1.3380 h1        1 MOL      0.083731
    155 H67        -2.2940    3.8510    2.4780 hc        1 MOL     -0.020818
    156 H68        -3.8770    4.1840    3.1570 hc        1 MOL     -0.020818
    157 H69        -3.3790    6.3620    3.6860 hc        1 MOL      0.046091
    158 H70        -2.0580    6.4950    2.5050 hc        1 MOL      0.046091
    159 N14        -2.1380    4.3630   -0.6150 n         1 MOL     -0.213239
    160 C53        -1.0560    4.4150   -1.6420 c3        1 MOL     -0.012326
    161 C54        -1.3760    5.3040   -2.9300 c         1 MOL      0.423754
    162 O24        -0.4350    5.8390   -3.5320 o         1 MOL     -0.513772
    163 C55        -0.7280    3.0200   -2.1330 c3        1 MOL      0.059066
    164 C56        -0.3480    1.9380   -0.9830 c3        1 MOL      0.173465
    165 C57         1.0830    2.1750   -0.4210 c         1 MOL      0.702564
    166 O25         2.0400    1.3830   -0.7560 o         1 MOL     -0.718445
    167 O26         1.3120    2.9630    0.5210 o         1 MOL     -0.718445
    168 H71        -2.6600    3.5030   -0.5390 hn        1 MOL      0.274813
    169 H72        -0.1400    4.7540   -1.1540 h1        1 MOL      0.127239
    170 H73         0.1110    3.1870   -2.8060 hc        1 MOL     -0.049566
    171 H74        -1.6700    2.6720   -2.5490 hc        1 MOL     -0.049566
    172 H75        -0.4300    0.9710   -1.4730 hc        1 MOL     -0.094817
    173 H76        -1.0510    2.0790   -0.1530 hc        1 MOL     -0.094817
    174 N15        -2.6810    5.4910   -3.2150 n         1 MOL     -0.202566
    175 C58        -3.2150    6.3430   -4.2810 c3        1 MOL     -0.201678
    176 H77        -2.4380    7.0270   -4.6220 h1        1 MOL      0.087319
    177 H78        -3.5430    5.7210   -5.1140 h1        1 MOL      0.087319
    178 H79        -4.0600    6.9160   -3.9000 h1        1 MOL      0.087319
    179 H80        -3.3860    4.9930   -2.6920 hn        1 MOL      0.202673
    180 Ca1         4.1270    1.9900    0.8460 Ca        1 MOL      1.787415
    181 O27         3.8300    4.6290    1.3810 oh        1 MOL     -0.864103
    182 H81         3.9670    5.0240    0.5160 ho        1 MOL      0.427904
    183 H82         3.0460    5.0630    1.7210 ho        1 MOL      0.427904
    184 O28         2.8990    2.5540    3.3030 oh        1 MOL     -0.864103
    185 H83         3.1450    2.9840    4.1190 ho        1 MOL      0.427904
    186 H84         1.9660    2.7320    3.2050 ho        1 MOL      0.427904
    187 O29         5.7330    1.1080    2.6930 oh        1 MOL     -0.864103
    188 H85         6.5720    0.7460    2.3920 ho        1 MOL      0.427904
    189 H86         5.8390    1.1780    3.6420 ho        1 MOL      0.427904
@<TRIPOS>BOND
     1    1    2 1   
     2    1    4 1   
     3    1    5 1   
     4    1    6 1   
     5    2    3 2   
     6    2    7 1   
     7    7    8 1   
     8    7   15 1   
     9    8    9 1   
    10    8   11 1   
    11    8   16 1   
    12    9   10 2   
    13    9   19 1   
    14   11   12 1   
    15   11   17 1   
    16   11   18 1   
    17   12   13 1   
    18   12   14 1   
    19   19   20 1   
    20   19   27 1   
    21   20   21 1   
    22   20   23 1   
    23   20   28 1   
    24   21   22 2   
    25   21   38 1   
    26   23   24 1   
    27   23   25 1   
    28   23   29 1   
    29   24   26 1   
    30   24   30 1   
    31   24   31 1   
    32   25   32 1   
    33   25   33 1   
    34   25   34 1   
    35   26   35 1   
    36   26   36 1   
    37   26   37 1   
    38   38   39 1   
    39   38   46 1   
    40   39   40 1   
    41   39   42 1   
    42   39   47 1   
    43   40   41 2   
    44   40   50 1   
    45   42   43 1   
    46   42   48 1   
    47   42   49 1   
    48   43   44 1   
    49   43   45 1   
    50   50   51 1   
    51   50   54 1   
    52   51   52 1   
    53   51   55 1   
    54   51   56 1   
    55   52   53 2   
    56   52   57 1   
    57   57   58 1   
    58   57   65 1   
    59   58   59 1   
    60   58   61 1   
    61   58   66 1   
    62   59   60 2   
    63   59   69 1   
    64   61   62 1   
    65   61   67 1   
    66   61   68 1   
    67   62   63 1   
    68   62   64 1   
    69   69   70 1   
    70   69   73 1   
    71   70   71 1   
    72   70   74 1   
    73   70   75 1   
    74   71   72 2   
    75   71   76 1   
    76   76   77 1   
    77   76   85 1   
    78   77   78 1   
    79   77   80 1   
    80   77   86 1   
    81   78   79 2   
    82   78   93 1   
    83   80   81 1   
    84   80   87 1   
    85   80   88 1   
    86   81   82 1   
    87   81   89 1   
    88   81   90 1   
    89   82   83 1   
    90   82   84 2   
    91   83   91 1   
    92   83   92 1   
    93   93   94 1   
    94   93  100 1   
    95   94   95 1   
    96   94   97 1   
    97   94  101 1   
    98   95   96 2   
    99   95  109 1   
   100   97   98 1   
   101   97   99 1   
   102   97  102 1   
   103   98  103 1   
   104   98  104 1   
   105   98  105 1   
   106   99  106 1   
   107   99  107 1   
   108   99  108 1   
   109  109  110 1   
   110  109  117 1   
   111  110  111 1   
   112  110  113 1   
   113  110  118 1   
   114  111  112 2   
   115  111  123 1   
   116  113  114 1   
   117  113  119 1   
   118  113  120 1   
   119  114  115 1   
   120  114  116 2   
   121  115  121 1   
   122  115  122 1   
   123  123  124 1   
   124  123  135 1   
   125  124  125 1   
   126  124  127 1   
   127  124  136 1   
   128  125  126 2   
   129  125  144 1   
   130  127  128 1   
   131  127  137 1   
   132  127  138 1   
   133  128  129 ar  
   134  128  130 ar  
   135  129  131 ar  
   136  129  139 1   
   137  130  132 ar  
   138  130  140 1   
   139  131  133 ar  
   140  131  141 1   
   141  132  133 ar  
   142  132  142 1   
   143  133  134 1   
   144  134  143 1   
   145  144  145 1   
   146  144  153 1   
   147  145  146 1   
   148  145  148 1   
   149  145  154 1   
   150  146  147 2   
   151  146  159 1   
   152  148  149 1   
   153  148  155 1   
   154  148  156 1   
   155  149  150 1   
   156  149  157 1   
   157  149  158 1   
   158  150  151 1   
   159  150  152 1   
   160  159  160 1   
   161  159  168 1   
   162  160  161 1   
   163  160  163 1   
   164  160  169 1   
   165  161  162 2   
   166  161  174 1   
   167  163  164 1   
   168  163  170 1   
   169  163  171 1   
   170  164  165 1   
   171  164  172 1   
   172  164  173 1   
   173  165  166 1   
   174  165  167 1   
   175  174  175 1   
   176  174  179 1   
   177  175  176 1   
   178  175  177 1   
   179  175  178 1   
   180  181  182 1   
   181  181  183 1   
   182  184  185 1   
   183  184  186 1   
   184  187  188 1   
   185  187  189 1   
@<TRIPOS>SUBSTRUCTURE
     1 MOL         1 TEMP              0 ****  ****    0 ROOT
