@<TRIPOS>MOLECULE
MOL
  181   177     1     0     0
SMALL
resp


@<TRIPOS>ATOM
      1 C1          8.2270   -5.8000    4.4590 c3        1 MOL     -0.214422
      2 C2          7.8010   -4.5240    3.7290 c         1 MOL      0.571009
      3 O1          6.8480   -3.8900    4.1100 o         1 MOL     -0.537366
      4 H1          7.3550   -6.4350    4.6190 hc        1 MOL      0.051701
      5 H2          8.9610   -6.3360    3.8580 hc        1 MOL      0.051701
      6 H3          8.6670   -5.5390    5.4220 hc        1 MOL      0.051701
      7 N1          8.4710   -4.0910    2.6320 n         1 MOL     -0.406063
      8 C3          9.6780   -4.6440    1.9940 c3        1 MOL      0.089680
      9 C4          9.3070   -5.0480    0.5190 c         1 MOL      0.480423
     10 O2          8.1710   -5.5110    0.2510 o         1 MOL     -0.464787
     11 C5         10.7880   -3.5830    2.1050 c3        1 MOL     -0.210008
     12 C6         10.4430   -2.2680    1.4500 c         1 MOL      0.707924
     13 O3         10.4550   -2.0760    0.2110 o         1 MOL     -0.747927
     14 O4         10.0910   -1.3200    2.1750 o         1 MOL     -0.747927
     15 H4          8.0660   -3.1930    2.4110 hn        1 MOL      0.319881
     16 H5          9.9540   -5.5360    2.5540 h1        1 MOL      0.062251
     17 H6         11.7210   -3.9950    1.6940 hc        1 MOL      0.039127
     18 H7         10.9960   -3.4420    3.1670 hc        1 MOL      0.039127
     19 N2         10.2180   -4.8950   -0.4860 n         1 MOL     -0.555650
     20 C7          9.9400   -5.1350   -1.8630 c3        1 MOL      0.341104
     21 C8          8.9380   -4.1890   -2.5910 c         1 MOL      0.460114
     22 O5          8.5310   -4.4960   -3.7280 o         1 MOL     -0.562719
     23 C9          9.6480   -6.6590   -2.1240 c3        1 MOL     -0.360025
     24 H8         11.1640   -4.6540   -0.2410 hn        1 MOL      0.308892
     25 H9         10.8880   -4.9930   -2.3660 h1        1 MOL      0.006610
     26 H10         9.4590   -7.1830   -1.1810 hc        1 MOL      0.088384
     27 H11         8.7630   -6.7600   -2.7470 hc        1 MOL      0.088384
     28 H12        10.4930   -7.1380   -2.6120 hc        1 MOL      0.088384
     29 N3          8.6510   -2.9750   -2.0920 n         1 MOL     -0.386606
     30 C10         7.6210   -2.0690   -2.5800 c3        1 MOL      0.301301
     31 C11         8.1070   -0.5480   -2.7130 c         1 MOL      0.346681
     32 O6          9.1590   -0.1520   -2.3150 o         1 MOL     -0.489331
     33 C12         6.3130   -2.2260   -1.7620 c3        1 MOL     -0.239905
     34 C13         6.5500   -1.9460   -0.2650 c         1 MOL      0.639841
     35 O7          7.5540   -1.2510    0.0620 o         1 MOL     -0.640782
     36 O8          5.7080   -2.4230    0.5660 o         1 MOL     -0.640782
     37 H13         9.0740   -2.6790   -1.2220 hn        1 MOL      0.156064
     38 H14         7.3400   -2.4170   -3.5660 h1        1 MOL     -0.012736
     39 H15         6.0060   -3.2780   -1.7850 hc        1 MOL      0.077630
     40 H16         5.4840   -1.6570   -2.1870 hc        1 MOL      0.077630
     41 N4          7.1700    0.2700   -3.3290 n         1 MOL     -0.372956
     42 C14         7.0030    1.6760   -3.1880 c3        1 MOL     -0.090579
     43 C15         6.6830    2.2690   -1.8100 c         1 MOL      0.497179
     44 O9          7.2460    1.8280   -0.7900 o         1 MOL     -0.549415
     45 H17         6.4130   -0.2620   -3.7350 hn        1 MOL      0.282185
     46 H18         6.2580    1.9910   -3.9180 h1        1 MOL      0.085764
     47 H19         7.9220    2.2470   -3.3560 h1        1 MOL      0.085764
     48 N5          5.8850    3.3690   -1.8320 n         1 MOL     -0.433148
     49 C16         5.0840    3.9450   -0.6780 c3        1 MOL      0.040009
     50 C17         3.6010    3.6350   -0.9760 c         1 MOL      0.621642
     51 O10         3.1480    3.2810   -2.0620 o         1 MOL     -0.500612
     52 C18         5.4400    5.4410   -0.6030 c3        1 MOL     -0.252121
     53 C19         6.9320    5.6700   -0.3060 c         1 MOL      0.579607
     54 N6          7.5380    6.5280   -1.0430 n         1 MOL     -0.729765
     55 O11         7.5650    5.0620    0.6020 o         1 MOL     -0.540770
     56 H20         5.6190    3.6040   -2.7800 hn        1 MOL      0.259101
     57 H21         5.4070    3.4160    0.2060 h1        1 MOL      0.123285
     58 H22         4.8370    5.8180    0.2190 hc        1 MOL      0.109539
     59 H23         5.2730    5.9980   -1.5190 hc        1 MOL      0.109539
     60 H24         7.1120    6.9530   -1.8560 hn        1 MOL      0.362146
     61 H25         8.4350    6.8390   -0.6960 hn        1 MOL      0.362146
     62 N7          2.7770    3.7860    0.0530 n         1 MOL     -0.654904
     63 C20         1.2950    3.9700    0.0240 c3        1 MOL      0.191319
     64 C21         0.8810    5.3030   -0.6170 c         1 MOL      0.549198
     65 O12         1.4980    5.9070   -1.5040 o         1 MOL     -0.562874
     66 H26         3.2690    4.0470    0.8940 hn        1 MOL      0.321296
     67 H27         0.8760    3.8990    1.0290 h1        1 MOL      0.076160
     68 H28         0.9340    3.1260   -0.5690 h1        1 MOL      0.076160
     69 N8         -0.3200    5.8620   -0.3210 n         1 MOL     -0.527184
     70 C22        -1.1730    5.4670    0.8310 c3        1 MOL     -0.183979
     71 C23        -2.1850    4.3530    0.3790 c         1 MOL      0.566523
     72 O13        -2.7420    4.3820   -0.7100 o         1 MOL     -0.506298
     73 C24        -1.8480    6.7560    1.4540 c3        1 MOL      0.524283
     74 C25        -0.8070    7.6880    2.0950 c3        1 MOL     -0.492227
     75 O14        -2.7200    7.2900    0.5250 oh        1 MOL     -0.622197
     76 H29        -0.6630    6.5070   -1.0160 hn        1 MOL      0.376059
     77 H30        -0.6620    5.0880    1.7110 h1        1 MOL      0.084553
     78 H31        -2.5470    6.4080    2.2120 h1        1 MOL     -0.021516
     79 H32        -3.5620    6.8410    0.6100 ho        1 MOL      0.406542
     80 H33        -1.2680    8.3700    2.8090 hc        1 MOL      0.122289
     81 H34        -0.0340    7.1670    2.6710 hc        1 MOL      0.122289
     82 H35        -0.4310    8.3400    1.3180 hc        1 MOL      0.122289
     83 N9         -2.5050    3.3690    1.2600 n         1 MOL     -0.619148
     84 C26        -3.5710    2.3630    0.8710 c3        1 MOL      0.151632
     85 C27        -4.5240    2.0240    1.9860 c         1 MOL      0.474238
     86 O15        -4.1100    1.9410    3.1470 o         1 MOL     -0.593228
     87 C28        -3.0050    1.0230    0.3810 c3        1 MOL     -0.214765
     88 C29        -1.6440    0.6020    1.1500 c3        1 MOL      0.328111
     89 C30        -2.6520    1.1480   -1.0980 c3        1 MOL     -0.606483
     90 C31        -1.2400   -0.8720    1.0540 c3        1 MOL     -0.171193
     91 H36        -2.3410    3.4740    2.2510 hn        1 MOL      0.316717
     92 H37        -4.1290    2.7880    0.0420 h1        1 MOL      0.178887
     93 H38        -3.7410    0.2310    0.4660 hc        1 MOL      0.067637
     94 H39        -1.5440    0.8960    2.1900 hc        1 MOL     -0.073471
     95 H40        -0.7650    1.1030    0.7520 hc        1 MOL     -0.073471
     96 H41        -2.4330    0.1320   -1.4410 hc        1 MOL      0.182312
     97 H42        -3.5170    1.5500   -1.6260 hc        1 MOL      0.182312
     98 H43        -1.7790    1.7950   -1.1710 hc        1 MOL      0.182312
     99 H44        -2.0730   -1.5150    1.3090 hc        1 MOL      0.034982
    100 H45        -1.0380   -1.0230   -0.0000 hc        1 MOL      0.034982
    101 H46        -0.3840   -1.1210    1.6800 hc        1 MOL      0.034982
    102 N10        -5.8250    1.7880    1.8150 n         1 MOL     -0.381662
    103 C32        -6.5960    1.9160    0.5310 c3        1 MOL      0.311150
    104 C33        -7.7740    0.8760    0.6120 c         1 MOL      0.375308
    105 O16        -8.0430    0.2990    1.6560 o         1 MOL     -0.512691
    106 C34        -7.0110    3.4390    0.3180 c3        1 MOL     -0.172062
    107 C35        -7.6160    4.0990    1.5690 c         1 MOL      0.619147
    108 O17        -7.0240    5.1350    2.0140 o         1 MOL     -0.673143
    109 O18        -8.5590    3.5720    2.2330 o         1 MOL     -0.673143
    110 H47        -6.3330    1.5010    2.6460 hn        1 MOL      0.309683
    111 H48        -6.0200    1.6850   -0.3700 h1        1 MOL      0.014181
    112 H49        -7.7140    3.5950   -0.5000 hc        1 MOL     -0.007923
    113 H50        -6.0760    3.8530   -0.0490 hc        1 MOL     -0.007923
    114 N11        -8.3880    0.6000   -0.5330 n         1 MOL     -0.680993
    115 C36        -9.6770   -0.1540   -0.6690 c3        1 MOL      0.705492
    116 C37        -9.6750   -0.9830   -1.9810 c         1 MOL      0.112750
    117 O19        -9.3120   -0.3900   -3.0250 o         1 MOL     -0.478306
    118 C38       -10.8780    0.8210   -0.6310 c3        1 MOL     -0.223082
    119 C39       -12.1810    0.0760   -0.4730 ca        1 MOL      0.090082
    120 C40       -13.0400   -0.0980   -1.5310 ca        1 MOL     -0.164199
    121 C41       -12.4360   -0.5070    0.7910 ca        1 MOL     -0.164199
    122 C42       -14.2000   -0.8600   -1.2940 ca        1 MOL     -0.126194
    123 C43       -13.5720   -1.3000    0.9950 ca        1 MOL     -0.126194
    124 C44       -14.4800   -1.4770   -0.0600 ca        1 MOL     -0.148280
    125 H51        -8.0340    1.1080   -1.3270 hn        1 MOL      0.325730
    126 H52        -9.6930   -0.8530    0.1740 h1        1 MOL     -0.052174
    127 H53       -10.9230    1.4340   -1.5240 hc        1 MOL      0.073599
    128 H54       -10.8520    1.5360    0.1930 hc        1 MOL      0.073599
    129 H55       -12.8270    0.3870   -2.4720 ha        1 MOL      0.129763
    130 H56       -11.6990   -0.4330    1.5810 ha        1 MOL      0.129763
    131 H57       -14.8340   -1.0220   -2.1500 ha        1 MOL      0.101909
    132 H58       -13.7950   -1.7130    1.9700 ha        1 MOL      0.101909
    133 H59       -15.3170   -2.1560    0.0710 ha        1 MOL      0.103030
    134 N12       -10.3210   -2.1880   -2.0440 n         1 MOL      0.028976
    135 C45       -10.7110   -3.0740   -0.9860 c3        1 MOL      0.166277
    136 C46        -9.6850   -3.2920    0.1410 c         1 MOL      0.256033
    137 O20       -10.1710   -3.4840    1.3060 o         1 MOL     -0.540026
    138 C47       -11.0020   -4.3590   -1.7330 c3        1 MOL     -0.087620
    139 C48       -11.4640   -3.9220   -3.1320 c3        1 MOL     -0.187580
    140 C49       -10.5780   -2.7270   -3.3610 c3        1 MOL     -0.209988
    141 H60       -11.5900   -2.6220   -0.5260 h1        1 MOL      0.032583
    142 H61       -10.0960   -4.9540   -1.8510 hc        1 MOL      0.066884
    143 H62       -11.7340   -4.9570   -1.1990 hc        1 MOL      0.066884
    144 H63       -11.1970   -4.6560   -3.8980 hc        1 MOL      0.055831
    145 H64       -12.4960   -3.5980   -3.0400 hc        1 MOL      0.055831
    146 H65        -9.6580   -3.0960   -3.8110 h1        1 MOL      0.123637
    147 H66       -11.0420   -1.9980   -4.0320 h1        1 MOL      0.123637
    148 N13        -8.3740   -3.4020   -0.1150 n         1 MOL     -0.131699
    149 C50        -7.3690   -3.5730    0.9890 c3        1 MOL      0.269778
    150 C51        -7.5970   -4.9840    1.5510 c         1 MOL      0.307238
    151 O21        -7.3470   -5.8830    0.8090 o         1 MOL     -0.532881
    152 C52        -5.9400   -3.4990    0.3970 c3        1 MOL     -0.139077
    153 C53        -5.5290   -2.2100   -0.2680 c3        1 MOL      0.123663
    154 C54        -6.0400   -1.9840   -1.6590 c         1 MOL      0.582687
    155 O22        -6.7520   -2.7890   -2.3040 o         1 MOL     -0.653078
    156 O23        -5.7470   -0.8750   -2.1860 o         1 MOL     -0.653078
    157 H67        -8.0480   -3.4330   -1.0700 hn        1 MOL      0.151567
    158 H68        -7.4660   -2.8640    1.8090 h1        1 MOL      0.030194
    159 H69        -5.8620   -4.3410   -0.2970 hc        1 MOL      0.019731
    160 H70        -5.2600   -3.6580    1.2440 hc        1 MOL      0.019731
    161 H71        -4.4410   -2.1610   -0.2720 hc        1 MOL     -0.045968
    162 H72        -5.8650   -1.4120    0.3940 hc        1 MOL     -0.045968
    163 N14        -8.0240   -5.1990    2.8230 n         1 MOL     -0.268236
    164 C55        -8.4430   -4.2590    3.8730 c3        1 MOL     -0.236710
    165 H73        -8.5120   -4.7860    4.8250 h1        1 MOL      0.100346
    166 H74        -7.7110   -3.4550    3.9570 h1        1 MOL      0.100346
    167 H75        -9.4170   -3.8400    3.6190 h1        1 MOL      0.100346
    168 H76        -8.0440   -6.1650    3.1170 hn        1 MOL      0.245286
    169 Ca1         9.4360    0.3910    0.2820 Ca        1 MOL      1.764616
    170 O24         7.7610    0.9070    2.1110 oh        1 MOL     -0.788503
    171 H77         7.4150    1.7550    2.3790 ho        1 MOL      0.380840
    172 H78         7.1790    0.2690    2.5290 ho        1 MOL      0.380840
    173 O25        11.0320    1.7740    2.2220 oh        1 MOL     -0.788503
    174 H79        11.9500    1.5580    2.3690 ho        1 MOL      0.380840
    175 H80        10.8860    2.5630    2.7460 ho        1 MOL      0.380840
    176 O26         9.5500    3.0770    0.0680 oh        1 MOL     -0.788503
    177 H81         8.8570    3.6660    0.3810 ho        1 MOL      0.380840
    178 H82         9.9820    3.5750   -0.6270 ho        1 MOL      0.380840
    179 O27        11.5140    1.1780   -1.0210 oh        1 MOL     -0.788503
    180 H83        11.6120    2.0310   -1.4450 ho        1 MOL      0.380840
    181 H84        12.2280    1.1360   -0.3800 ho        1 MOL      0.380840
@<TRIPOS>BOND
     1    1    2 1   
     2    1    4 1   
     3    1    5 1   
     4    1    6 1   
     5    2    3 2   
     6    2    7 1   
     7    7    8 1   
     8    7   15 1   
     9    8    9 1   
    10    8   11 1   
    11    8   16 1   
    12    9   10 2   
    13    9   19 1   
    14   11   12 1   
    15   11   17 1   
    16   11   18 1   
    17   12   13 1   
    18   12   14 1   
    19   19   20 1   
    20   19   24 1   
    21   20   21 1   
    22   20   23 1   
    23   20   25 1   
    24   21   22 2   
    25   21   29 1   
    26   23   26 1   
    27   23   27 1   
    28   23   28 1   
    29   29   30 1   
    30   29   37 1   
    31   30   31 1   
    32   30   33 1   
    33   30   38 1   
    34   31   32 2   
    35   31   41 1   
    36   33   34 1   
    37   33   39 1   
    38   33   40 1   
    39   34   35 1   
    40   34   36 1   
    41   41   42 1   
    42   41   45 1   
    43   42   43 1   
    44   42   46 1   
    45   42   47 1   
    46   43   44 2   
    47   43   48 1   
    48   48   49 1   
    49   48   56 1   
    50   49   50 1   
    51   49   52 1   
    52   49   57 1   
    53   50   51 2   
    54   50   62 1   
    55   52   53 1   
    56   52   58 1   
    57   52   59 1   
    58   53   54 1   
    59   53   55 2   
    60   54   60 1   
    61   54   61 1   
    62   62   63 1   
    63   62   66 1   
    64   63   64 1   
    65   63   67 1   
    66   63   68 1   
    67   64   65 2   
    68   64   69 1   
    69   69   70 1   
    70   69   76 1   
    71   70   71 1   
    72   70   73 1   
    73   70   77 1   
    74   71   72 2   
    75   71   83 1   
    76   73   74 1   
    77   73   75 1   
    78   73   78 1   
    79   74   80 1   
    80   74   81 1   
    81   74   82 1   
    82   75   79 1   
    83   83   84 1   
    84   83   91 1   
    85   84   85 1   
    86   84   87 1   
    87   84   92 1   
    88   85   86 2   
    89   85  102 1   
    90   87   88 1   
    91   87   89 1   
    92   87   93 1   
    93   88   90 1   
    94   88   94 1   
    95   88   95 1   
    96   89   96 1   
    97   89   97 1   
    98   89   98 1   
    99   90   99 1   
   100   90  100 1   
   101   90  101 1   
   102  102  103 1   
   103  102  110 1   
   104  103  104 1   
   105  103  106 1   
   106  103  111 1   
   107  104  105 2   
   108  104  114 1   
   109  106  107 1   
   110  106  112 1   
   111  106  113 1   
   112  107  108 1   
   113  107  109 1   
   114  114  115 1   
   115  114  125 1   
   116  115  116 1   
   117  115  118 1   
   118  115  126 1   
   119  116  117 2   
   120  116  134 1   
   121  118  119 1   
   122  118  127 1   
   123  118  128 1   
   124  119  120 ar  
   125  119  121 ar  
   126  120  122 ar  
   127  120  129 1   
   128  121  123 ar  
   129  121  130 1   
   130  122  124 ar  
   131  122  131 1   
   132  123  124 ar  
   133  123  132 1   
   134  124  133 1   
   135  134  135 1   
   136  134  140 1   
   137  135  136 1   
   138  135  138 1   
   139  135  141 1   
   140  136  137 2   
   141  136  148 1   
   142  138  139 1   
   143  138  142 1   
   144  138  143 1   
   145  139  140 1   
   146  139  144 1   
   147  139  145 1   
   148  140  146 1   
   149  140  147 1   
   150  148  149 1   
   151  148  157 1   
   152  149  150 1   
   153  149  152 1   
   154  149  158 1   
   155  150  151 2   
   156  150  163 1   
   157  152  153 1   
   158  152  159 1   
   159  152  160 1   
   160  153  154 1   
   161  153  161 1   
   162  153  162 1   
   163  154  155 1   
   164  154  156 1   
   165  163  164 1   
   166  163  168 1   
   167  164  165 1   
   168  164  166 1   
   169  164  167 1   
   170  170  171 1   
   171  170  172 1   
   172  173  174 1   
   173  173  175 1   
   174  176  177 1   
   175  176  178 1   
   176  179  180 1   
   177  179  181 1   
@<TRIPOS>SUBSTRUCTURE
     1 MOL         1 TEMP              0 ****  ****    0 ROOT
