@<TRIPOS>MOLECULE
MOL
  178   175     1     0     0
SMALL
resp


@<TRIPOS>ATOM
      1 C1          7.9740    6.8740   -2.7420 c3        1 MOL     -0.417333
      2 C2          7.0660    6.0900   -1.7710 c         1 MOL      0.676105
      3 O1          6.3930    6.6650   -0.9650 o         1 MOL     -0.580038
      4 H1          8.8660    7.2100   -2.2140 hc        1 MOL      0.100453
      5 H2          8.2650    6.2270   -3.5700 hc        1 MOL      0.100453
      6 H3          7.4340    7.7380   -3.1280 hc        1 MOL      0.100453
      7 N1          7.0260    4.7520   -1.8850 n         1 MOL     -0.473896
      8 C3          7.8650    3.8310   -2.7230 c3        1 MOL      0.105906
      9 C4          8.9910    3.1890   -1.9140 c         1 MOL      0.441710
     10 O2          9.7790    2.4620   -2.5420 o         1 MOL     -0.548414
     11 C5          6.9880    2.7800   -3.3360 c3        1 MOL     -0.112818
     12 C6          6.0750    2.0680   -2.3940 c         1 MOL      0.693763
     13 O3          6.2690    2.1680   -1.1750 o         1 MOL     -0.724709
     14 O4          5.1810    1.3030   -2.8590 o         1 MOL     -0.724709
     15 H4          6.4270    4.2460   -1.2430 hn        1 MOL      0.248723
     16 H5          8.3400    4.2810   -3.5950 h1        1 MOL      0.070158
     17 H6          7.5140    2.0780   -3.9920 hc        1 MOL      0.045320
     18 H7          6.4240    3.3330   -4.0830 hc        1 MOL      0.045320
     19 N2          9.0210    3.3920   -0.5730 n         1 MOL     -0.459972
     20 C7         10.1710    2.8430    0.1840 c3        1 MOL      0.225927
     21 C8         10.1370    1.3400    0.4250 c         1 MOL      0.307273
     22 O5         11.0660    0.7960    1.0560 o         1 MOL     -0.546230
     23 C9         10.2110    3.7040    1.4620 c3        1 MOL     -0.339897
     24 H8          8.2130    3.6980   -0.0650 hn        1 MOL      0.279158
     25 H9         11.0740    3.0460   -0.3910 h1        1 MOL      0.064039
     26 H10        10.0970    4.7780    1.2910 hc        1 MOL      0.100283
     27 H11         9.3320    3.4700    2.0670 hc        1 MOL      0.100283
     28 H12        11.0700    3.4270    2.0580 hc        1 MOL      0.100283
     29 N3          9.0900    0.6280    0.0910 n         1 MOL     -0.047833
     30 C10         8.9060   -0.8340    0.3880 c3        1 MOL     -0.065715
     31 C11         7.9760   -1.3850   -0.6690 c         1 MOL      0.371993
     32 O6          7.2590   -0.6200   -1.2710 o         1 MOL     -0.465988
     33 C12         8.4390   -1.0680    1.8030 c3        1 MOL     -0.023744
     34 C13         7.1470   -0.2400    2.0400 c         1 MOL      0.752259
     35 O7          6.0700   -0.6610    1.5160 o         1 MOL     -0.732550
     36 O8          7.1610    0.8640    2.6400 o         1 MOL     -0.732550
     37 H13         8.3130    1.1450   -0.3060 hn        1 MOL      0.147726
     38 H14         9.8300   -1.4060    0.3020 h1        1 MOL      0.070923
     39 H15         9.2690   -0.8410    2.4680 hc        1 MOL      0.003258
     40 H16         8.1600   -2.1130    1.9600 hc        1 MOL      0.003258
     41 N4          7.9390   -2.7000   -0.8950 n         1 MOL     -0.196876
     42 C14         7.2260   -3.4340   -1.9400 c3        1 MOL     -0.421372
     43 C15         5.6810   -3.4860   -1.6610 c         1 MOL      0.576055
     44 O9          5.0780   -2.5340   -1.0950 o         1 MOL     -0.577274
     45 H17         8.6600   -3.2490   -0.4740 hn        1 MOL      0.255637
     46 H18         7.5780   -4.4580   -2.0770 h1        1 MOL      0.179739
     47 H19         7.3810   -2.8610   -2.8620 h1        1 MOL      0.179739
     48 N5          4.9690   -4.5200   -2.0160 n         1 MOL     -0.375130
     49 C16         3.4950   -4.5770   -1.8930 c3        1 MOL      0.069785
     50 C17         3.0120   -4.3390   -0.5030 c         1 MOL      0.605040
     51 O10         3.5580   -4.8030    0.5380 o         1 MOL     -0.533637
     52 C18         2.9370   -5.9080   -2.4250 c3        1 MOL     -0.397964
     53 C19         3.4010   -6.3940   -3.6970 c         1 MOL      0.819945
     54 N6          4.0660   -7.5480   -3.8100 n         1 MOL     -0.861324
     55 O11         3.2970   -5.6940   -4.6500 o         1 MOL     -0.574666
     56 H20         5.4140   -5.3070   -2.4630 hn        1 MOL      0.257440
     57 H21         3.0980   -3.7710   -2.5070 h1        1 MOL      0.079589
     58 H22         1.8820   -5.6840   -2.5880 hc        1 MOL      0.107949
     59 H23         3.1580   -6.6640   -1.6730 hc        1 MOL      0.107949
     60 H24         4.1360   -8.1680   -3.0090 hn        1 MOL      0.373305
     61 H25         4.5790   -7.7340   -4.6610 hn        1 MOL      0.373305
     62 N7          1.8380   -3.7110   -0.3960 n         1 MOL     -0.549349
     63 C20         1.3650   -3.2650    0.9340 c3        1 MOL      0.179178
     64 C21         2.3000   -2.1620    1.4190 c         1 MOL      0.412826
     65 O12         3.1100   -1.6240    0.6170 o         1 MOL     -0.561300
     66 H26         1.3430   -3.3890   -1.2130 hn        1 MOL      0.331170
     67 H27         1.4040   -4.1180    1.6100 h1        1 MOL      0.072383
     68 H28         0.3190   -2.9510    0.8290 h1        1 MOL      0.072383
     69 N8          2.3220   -1.8620    2.7080 n         1 MOL     -0.229936
     70 C22         1.3420   -2.3740    3.7490 c3        1 MOL     -0.227381
     71 C23        -0.1430   -1.8520    3.5180 c         1 MOL      0.206989
     72 O13        -1.1190   -2.5910    3.7960 o         1 MOL     -0.478711
     73 C24         1.7020   -1.9670    5.1410 c3        1 MOL      0.356388
     74 C25         3.0110   -2.5420    5.7830 c3        1 MOL     -0.411516
     75 O14         1.8590   -0.5650    5.3640 oh        1 MOL     -0.577464
     76 H29         2.9650   -1.1570    3.0550 hn        1 MOL      0.239876
     77 H30         1.3470   -3.4600    3.7810 h1        1 MOL      0.161254
     78 H31         0.8820   -2.1340    5.8410 h1        1 MOL      0.108335
     79 H32         2.7250   -0.2740    5.0360 ho        1 MOL      0.387497
     80 H33         2.9350   -2.0720    6.7580 hc        1 MOL      0.102009
     81 H34         2.8800   -3.6180    5.9120 hc        1 MOL      0.102009
     82 H35         3.9430   -2.2630    5.2950 hc        1 MOL      0.102009
     83 N9         -0.3490   -0.6510    2.9880 n         1 MOL     -0.073594
     84 C26        -1.6100   -0.0340    2.6310 c3        1 MOL     -0.014960
     85 C27        -1.7870    0.0360    1.1170 c         1 MOL      0.651021
     86 O15        -0.9180    0.5120    0.4340 o         1 MOL     -0.633383
     87 C28        -1.7700    1.3610    3.2350 c3        1 MOL      0.047057
     88 C29        -1.6150    1.2130    4.7750 c3        1 MOL     -0.002911
     89 C30        -3.0900    1.9830    2.9780 c3        1 MOL     -0.096468
     90 C31        -0.7340    2.3060    5.4210 c3        1 MOL     -0.304699
     91 H36         0.4880   -0.1590    2.7180 hn        1 MOL      0.100311
     92 H37        -2.3910   -0.7060    3.0040 h1        1 MOL      0.062885
     93 H38        -1.0660    2.0010    2.7050 hc        1 MOL      0.010375
     94 H39        -1.1410    0.2850    5.0710 hc        1 MOL      0.048048
     95 H40        -2.5780    1.0830    5.2590 hc        1 MOL      0.048048
     96 H41        -3.2770    2.1030    1.9080 hc        1 MOL      0.055968
     97 H42        -3.8770    1.4870    3.5440 hc        1 MOL      0.055968
     98 H43        -3.0880    3.0030    3.3530 hc        1 MOL      0.055968
     99 H44        -0.9190    3.3090    5.0380 hc        1 MOL      0.064241
    100 H45        -0.9350    2.2660    6.4930 hc        1 MOL      0.064241
    101 H46         0.3300    2.0880    5.4970 hc        1 MOL      0.064241
    102 N10        -2.8510   -0.4650    0.5640 n         1 MOL     -0.572473
    103 C32        -4.1500   -0.8170    1.1450 c3        1 MOL      0.274932
    104 C33        -5.3200   -0.6250    0.1540 c         1 MOL      0.483175
    105 O16        -5.1130   -0.3550   -0.9900 o         1 MOL     -0.512280
    106 C34        -4.1450   -2.3530    1.5640 c3        1 MOL     -0.103429
    107 C35        -3.7660   -3.3040    0.4280 c         1 MOL      0.713704
    108 O17        -2.6080   -3.8140    0.3580 o         1 MOL     -0.717949
    109 O18        -4.6480   -3.5610   -0.4490 o         1 MOL     -0.717949
    110 H47        -2.8770   -0.6440   -0.4360 hn        1 MOL      0.328014
    111 H48        -4.4560   -0.1940    1.9910 h1        1 MOL     -0.028434
    112 H49        -5.1760   -2.5350    1.8690 hc        1 MOL     -0.017195
    113 H50        -3.5170   -2.4700    2.4530 hc        1 MOL     -0.017195
    114 N11        -6.5490   -0.7130    0.6750 n         1 MOL     -0.631646
    115 C36        -7.7860   -0.8110   -0.0990 c3        1 MOL      0.630836
    116 C37        -9.0080   -0.0350    0.4770 c         1 MOL      0.083526
    117 O19        -9.2820   -0.0800    1.6550 o         1 MOL     -0.459875
    118 C38        -8.1020   -2.3040   -0.1560 c3        1 MOL     -0.327330
    119 C39        -9.3760   -2.6620   -0.8870 ca        1 MOL      0.182192
    120 C40       -10.6380   -2.7630   -0.2630 ca        1 MOL     -0.169215
    121 C41        -9.3380   -2.8770   -2.2520 ca        1 MOL     -0.169215
    122 C42       -11.8220   -2.9950   -0.9450 ca        1 MOL     -0.128357
    123 C43       -10.4920   -3.2820   -2.9990 ca        1 MOL     -0.128357
    124 C44       -11.7550   -3.3380   -2.3180 ca        1 MOL     -0.156159
    125 H51        -6.6020   -0.9520    1.6540 hn        1 MOL      0.331680
    126 H52        -7.6000   -0.3870   -1.0850 h1        1 MOL     -0.043038
    127 H53        -8.1770   -2.7170    0.8550 hc        1 MOL      0.093645
    128 H54        -7.2900   -2.8060   -0.6870 hc        1 MOL      0.093645
    129 H55       -10.7470   -2.6100    0.8040 ha        1 MOL      0.124804
    130 H56        -8.4150   -2.7180   -2.7920 ha        1 MOL      0.124804
    131 H57       -12.8030   -3.0330   -0.4930 ha        1 MOL      0.107752
    132 H58       -10.4500   -3.4580   -4.0720 ha        1 MOL      0.107752
    133 H59       -12.6270   -3.5890   -2.8970 ha        1 MOL      0.100993
    134 N12        -9.8870    0.5380   -0.3950 n         1 MOL      0.195288
    135 C45        -9.7250    0.7200   -1.8150 c3        1 MOL     -0.010660
    136 C46        -8.6520    1.7930   -2.1260 c         1 MOL      0.508004
    137 O20        -7.9690    1.7230   -3.1530 o         1 MOL     -0.559874
    138 C47       -11.1450    1.1100   -2.3350 c3        1 MOL     -0.123288
    139 C48       -11.7530    1.8240   -1.1590 c3        1 MOL      0.073942
    140 C49       -11.2060    1.0570    0.0070 c3        1 MOL     -0.185059
    141 H60        -9.4710   -0.2100   -2.3160 h1        1 MOL      0.017611
    142 H61       -11.0990    1.7990   -3.1710 hc        1 MOL      0.039448
    143 H62       -11.7240    0.2650   -2.7060 hc        1 MOL      0.039448
    144 H63       -11.3100    2.8120   -0.9950 hc        1 MOL      0.001085
    145 H64       -12.8310    1.9150   -1.2230 hc        1 MOL      0.001085
    146 H65       -11.1630    1.8710    0.7290 h1        1 MOL      0.059649
    147 H66       -11.7600    0.2030    0.3790 h1        1 MOL      0.059649
    148 N13        -8.4250    2.7480   -1.1810 n         1 MOL     -0.497419
    149 C50        -7.2230    3.6230   -1.1790 c3        1 MOL      0.237072
    150 C51        -7.4910    4.9360   -1.9150 c         1 MOL      0.339717
    151 O21        -8.0190    5.8670   -1.3200 o         1 MOL     -0.551083
    152 C52        -6.8810    3.9990    0.2630 c3        1 MOL     -0.035021
    153 C53        -6.2320    2.9600    1.2150 c3        1 MOL     -0.238084
    154 C54        -6.5270    3.4120    2.6500 c         1 MOL      0.718132
    155 O22        -7.0480    2.5970    3.4190 o         1 MOL     -0.729804
    156 O23        -6.1820    4.5560    2.9790 o         1 MOL     -0.729804
    157 H67        -8.8810    2.6600   -0.2880 hn        1 MOL      0.334316
    158 H68        -6.4240    3.0380   -1.6190 h1        1 MOL      0.066510
    159 H69        -7.8300    4.3220    0.6800 hc        1 MOL      0.035692
    160 H70        -6.2330    4.8790    0.2270 hc        1 MOL      0.035692
    161 H71        -5.1780    2.9590    0.9620 hc        1 MOL      0.009818
    162 H72        -6.6450    1.9780    1.0110 hc        1 MOL      0.009818
    163 N14        -7.0550    5.0770   -3.1320 n         1 MOL     -0.269518
    164 C55        -6.1940    4.1750   -3.9590 c3        1 MOL     -0.178464
    165 H73        -6.7980    3.7120   -4.7390 h1        1 MOL      0.090827
    166 H74        -5.3940    4.7550   -4.4170 h1        1 MOL      0.090827
    167 H75        -5.7640    3.4000   -3.3240 h1        1 MOL      0.090827
    168 H76        -7.4250    5.9050   -3.5860 hn        1 MOL      0.242411
    169 Ca1         4.6640    0.0710   -0.4880 Ca        1 MOL      1.759588
    170 O24         2.3160    1.4100    0.0080 oh        1 MOL     -0.891337
    171 H77         1.4710    1.6220   -0.3950 ho        1 MOL      0.439567
    172 H78         2.1230    1.3660    0.9430 ho        1 MOL      0.439567
    173 O25         5.0350    2.0140    1.4020 oh        1 MOL     -0.891337
    174 H79         5.3210    2.9220    1.2760 ho        1 MOL      0.439567
    175 H80         5.8130    1.5710    1.7360 ho        1 MOL      0.439567
    176 O26         2.6910   -0.4970   -2.1370 oh        1 MOL     -0.891337
    177 H81         1.8530   -0.8510   -1.8630 ho        1 MOL      0.439567
    178 H82         2.5490   -0.2040   -3.0350 ho        1 MOL      0.439567
@<TRIPOS>BOND
     1    1    2 1   
     2    1    4 1   
     3    1    5 1   
     4    1    6 1   
     5    2    3 2   
     6    2    7 1   
     7    7    8 1   
     8    7   15 1   
     9    8    9 1   
    10    8   11 1   
    11    8   16 1   
    12    9   10 2   
    13    9   19 1   
    14   11   12 1   
    15   11   17 1   
    16   11   18 1   
    17   12   13 1   
    18   12   14 1   
    19   19   20 1   
    20   19   24 1   
    21   20   21 1   
    22   20   23 1   
    23   20   25 1   
    24   21   22 2   
    25   21   29 1   
    26   23   26 1   
    27   23   27 1   
    28   23   28 1   
    29   29   30 1   
    30   29   37 1   
    31   30   31 1   
    32   30   33 1   
    33   30   38 1   
    34   31   32 2   
    35   31   41 1   
    36   33   34 1   
    37   33   39 1   
    38   33   40 1   
    39   34   35 1   
    40   34   36 1   
    41   41   42 1   
    42   41   45 1   
    43   42   43 1   
    44   42   46 1   
    45   42   47 1   
    46   43   44 2   
    47   43   48 1   
    48   48   49 1   
    49   48   56 1   
    50   49   50 1   
    51   49   52 1   
    52   49   57 1   
    53   50   51 2   
    54   50   62 1   
    55   52   53 1   
    56   52   58 1   
    57   52   59 1   
    58   53   54 1   
    59   53   55 2   
    60   54   60 1   
    61   54   61 1   
    62   62   63 1   
    63   62   66 1   
    64   63   64 1   
    65   63   67 1   
    66   63   68 1   
    67   64   65 2   
    68   64   69 1   
    69   69   70 1   
    70   69   76 1   
    71   70   71 1   
    72   70   73 1   
    73   70   77 1   
    74   71   72 2   
    75   71   83 1   
    76   73   74 1   
    77   73   75 1   
    78   73   78 1   
    79   74   80 1   
    80   74   81 1   
    81   74   82 1   
    82   75   79 1   
    83   83   84 1   
    84   83   91 1   
    85   84   85 1   
    86   84   87 1   
    87   84   92 1   
    88   85   86 2   
    89   85  102 1   
    90   87   88 1   
    91   87   89 1   
    92   87   93 1   
    93   88   90 1   
    94   88   94 1   
    95   88   95 1   
    96   89   96 1   
    97   89   97 1   
    98   89   98 1   
    99   90   99 1   
   100   90  100 1   
   101   90  101 1   
   102  102  103 1   
   103  102  110 1   
   104  103  104 1   
   105  103  106 1   
   106  103  111 1   
   107  104  105 2   
   108  104  114 1   
   109  106  107 1   
   110  106  112 1   
   111  106  113 1   
   112  107  108 1   
   113  107  109 1   
   114  114  115 1   
   115  114  125 1   
   116  115  116 1   
   117  115  118 1   
   118  115  126 1   
   119  116  117 2   
   120  116  134 1   
   121  118  119 1   
   122  118  127 1   
   123  118  128 1   
   124  119  120 ar  
   125  119  121 ar  
   126  120  122 ar  
   127  120  129 1   
   128  121  123 ar  
   129  121  130 1   
   130  122  124 ar  
   131  122  131 1   
   132  123  124 ar  
   133  123  132 1   
   134  124  133 1   
   135  134  135 1   
   136  134  140 1   
   137  135  136 1   
   138  135  138 1   
   139  135  141 1   
   140  136  137 2   
   141  136  148 1   
   142  138  139 1   
   143  138  142 1   
   144  138  143 1   
   145  139  140 1   
   146  139  144 1   
   147  139  145 1   
   148  140  146 1   
   149  140  147 1   
   150  148  149 1   
   151  148  157 1   
   152  149  150 1   
   153  149  152 1   
   154  149  158 1   
   155  150  151 2   
   156  150  163 1   
   157  152  153 1   
   158  152  159 1   
   159  152  160 1   
   160  153  154 1   
   161  153  161 1   
   162  153  162 1   
   163  154  155 1   
   164  154  156 1   
   165  163  164 1   
   166  163  168 1   
   167  164  165 1   
   168  164  166 1   
   169  164  167 1   
   170  170  171 1   
   171  170  172 1   
   172  173  174 1   
   173  173  175 1   
   174  176  177 1   
   175  176  178 1   
@<TRIPOS>SUBSTRUCTURE
     1 MOL         1 TEMP              0 ****  ****    0 ROOT
