@<TRIPOS>MOLECULE
MOL
  188   182     1     0     0
SMALL
resp


@<TRIPOS>ATOM
      1 C1         -3.9410    3.7170   -3.0030 c3        1 MOL     -0.401656
      2 C2         -5.1770    3.2520   -2.2400 c         1 MOL      0.584186
      3 O1         -5.1270    2.4830   -1.2550 o         1 MOL     -0.513003
      4 H1         -4.2500    4.2700   -3.8900 hc        1 MOL      0.107665
      5 H2         -3.3400    4.3630   -2.3640 hc        1 MOL      0.107665
      6 H3         -3.3520    2.8500   -3.3030 hc        1 MOL      0.107665
      7 N1         -6.3430    3.7900   -2.5660 n         1 MOL     -0.432299
      8 C3         -7.6470    3.4950   -1.9930 c3        1 MOL      0.047246
      9 C4         -7.9060    1.9850   -1.6810 c         1 MOL      0.462932
     10 O2         -8.5810    1.5580   -0.7590 o         1 MOL     -0.477710
     11 C5         -7.8710    4.3140   -0.7000 c3        1 MOL     -0.251354
     12 C6         -7.6640    5.8640   -0.8320 c         1 MOL      0.756801
     13 O3         -6.6220    6.4760   -0.4810 o         1 MOL     -0.676201
     14 O4         -8.6330    6.4840   -1.2150 o         1 MOL     -0.676201
     15 H4         -6.3060    4.5260   -3.2550 hn        1 MOL      0.300050
     16 H5         -8.3530    3.8050   -2.7600 h1        1 MOL      0.061095
     17 H6         -7.1490    3.9890    0.0490 hc        1 MOL      0.082195
     18 H7         -8.8350    4.1100   -0.2400 hc        1 MOL      0.082195
     19 N2         -7.4630    1.1310   -2.6360 n         1 MOL     -0.288762
     20 C7         -7.6150   -0.2780   -2.7000 c3        1 MOL      0.060293
     21 C8         -6.9420   -1.1960   -1.6920 c         1 MOL      0.533632
     22 O5         -7.2970   -2.3390   -1.5500 o         1 MOL     -0.557968
     23 C9         -7.1960   -0.7220   -4.1340 c3        1 MOL      0.005152
     24 C10        -7.5340   -2.1410   -4.6160 c3        1 MOL     -0.041725
     25 C11        -9.0570   -2.5230   -4.6250 c3        1 MOL      0.109380
     26 C12        -9.3770   -3.7850   -5.3820 c3        1 MOL     -0.000172
     27 N3        -10.5220   -4.3930   -4.8340 n4        1 MOL     -0.216948
     28 H8         -7.1740    1.6190   -3.4760 hn        1 MOL      0.158331
     29 H9         -8.6890   -0.4450   -2.5940 h1        1 MOL      0.026753
     30 H10        -6.1600   -0.4430   -4.3170 hc        1 MOL      0.009715
     31 H11        -7.8620   -0.1810   -4.7980 hc        1 MOL      0.009715
     32 H12        -7.0160   -2.8630   -3.9810 hc        1 MOL      0.026182
     33 H13        -7.1680   -2.2460   -5.6320 hc        1 MOL      0.026182
     34 H14        -9.6820   -1.7170   -5.0040 hc        1 MOL     -0.008156
     35 H15        -9.2350   -2.6420   -3.5530 hc        1 MOL     -0.008156
     36 H16        -8.5030   -4.4270   -5.2940 hx        1 MOL      0.060158
     37 H17        -9.5850   -3.4130   -6.3960 hx        1 MOL      0.060158
     38 H18       -10.2800   -4.7340   -3.9220 hn        1 MOL      0.243775
     39 H19       -11.3070   -3.7660   -4.7890 hn        1 MOL      0.243775
     40 H20       -10.7370   -5.2460   -5.3240 hn        1 MOL      0.243775
     41 N4         -5.9710   -0.6990   -0.9380 n         1 MOL     -0.323021
     42 C13        -5.2960   -1.4790    0.1200 c3        1 MOL      0.241350
     43 C14        -5.6790   -1.0070    1.5050 c         1 MOL      0.415698
     44 O6         -5.9910    0.1560    1.7350 o         1 MOL     -0.400305
     45 C15        -3.7820   -1.4360   -0.1170 c3        1 MOL     -0.235187
     46 C16        -2.9480   -2.1160    0.9000 c         1 MOL      0.655001
     47 O7         -2.6540   -1.5380    1.9510 o         1 MOL     -0.648596
     48 O8         -2.5310   -3.2780    0.6730 o         1 MOL     -0.648596
     49 H21        -5.6500    0.2380   -1.1170 hn        1 MOL      0.139456
     50 H22        -5.5840   -2.5140   -0.0590 h1        1 MOL      0.000369
     51 H23        -3.4700   -0.3890   -0.1170 hc        1 MOL      0.070273
     52 H24        -3.6530   -1.9290   -1.0760 hc        1 MOL      0.070273
     53 N5         -5.5980   -1.8610    2.5680 n         1 MOL     -0.421782
     54 C17        -6.0800   -1.5310    3.8990 c3        1 MOL     -0.107358
     55 C18        -5.2420   -0.5530    4.6150 c         1 MOL      0.503511
     56 O9         -5.7800    0.1270    5.4510 o         1 MOL     -0.546079
     57 H25        -5.3420   -2.8230    2.4030 hn        1 MOL      0.278163
     58 H26        -6.0060   -2.4760    4.4390 h1        1 MOL      0.094132
     59 H27        -7.1330   -1.2560    3.8840 h1        1 MOL      0.094132
     60 N6         -3.9220   -0.4630    4.3800 n         1 MOL     -0.233490
     61 C19        -3.0760    0.4980    5.0540 c3        1 MOL      0.092501
     62 C20        -2.5490    1.5600    4.0290 c         1 MOL      0.501751
     63 O10        -2.3450    2.6940    4.4500 o         1 MOL     -0.560228
     64 C21        -2.0310   -0.2570    5.7890 c3        1 MOL     -0.295842
     65 C22        -0.6920   -0.4120    5.0270 c         1 MOL      0.593920
     66 N7          0.2130    0.5280    5.0900 n         1 MOL     -0.742353
     67 O11        -0.5860   -1.1970    4.1560 o         1 MOL     -0.517394
     68 H28        -3.5360   -1.0850    3.6810 hn        1 MOL      0.123612
     69 H29        -3.6590    1.1400    5.7300 h1        1 MOL      0.100210
     70 H30        -2.4650   -1.2070    6.1150 hc        1 MOL      0.080614
     71 H31        -1.8230    0.2450    6.7260 hc        1 MOL      0.080614
     72 H32         0.1370    1.3340    5.6910 hn        1 MOL      0.376572
     73 H33         0.9030    0.5320    4.3620 hn        1 MOL      0.376572
     74 N8         -2.3910    1.2790    2.7830 n         1 MOL     -0.264691
     75 C23        -1.9030    2.2190    1.7730 c3        1 MOL     -0.126955
     76 C24        -0.4270    2.6100    1.8860 c         1 MOL      0.668179
     77 O12         0.3340    2.1570    2.7300 o         1 MOL     -0.545981
     78 H34        -2.6350    0.3560    2.4430 hn        1 MOL      0.197377
     79 H35        -2.5070    3.1260    1.7130 h1        1 MOL      0.116821
     80 H36        -2.0400    1.6460    0.8640 h1        1 MOL      0.116821
     81 N9          0.0110    3.5130    0.9840 n         1 MOL     -0.676374
     82 C25         1.3940    3.7840    0.6430 c3        1 MOL      0.319717
     83 C26         1.8950    2.6570   -0.2850 c         1 MOL      0.382368
     84 O13         1.2130    1.9390   -1.0220 o         1 MOL     -0.538100
     85 C27         1.4920    5.2310    0.1500 c3        1 MOL     -0.186955
     86 C28         2.8960    5.6490   -0.3000 ca        1 MOL     -0.000107
     87 C29         3.8980    5.8440    0.6890 ca        1 MOL     -0.138869
     88 C30         3.2200    5.6000   -1.6610 ca        1 MOL     -0.138869
     89 C31         5.2640    6.0420    0.2620 ca        1 MOL     -0.265072
     90 C32         4.5310    5.9130   -2.0540 ca        1 MOL     -0.265072
     91 C33         5.5470    6.0630   -1.0990 ca        1 MOL      0.371148
     92 O14         6.7880    6.1830   -1.5450 oh        1 MOL     -0.581076
     93 H37        -0.6250    3.8810    0.2930 hn        1 MOL      0.312937
     94 H38         2.0220    3.6510    1.5200 h1        1 MOL      0.032300
     95 H39         1.1990    5.9810    0.8780 hc        1 MOL      0.103593
     96 H40         0.7300    5.3630   -0.6240 hc        1 MOL      0.103593
     97 H41         3.6810    5.8550    1.7490 ha        1 MOL      0.147478
     98 H42         2.4690    5.3790   -2.4080 ha        1 MOL      0.147478
     99 H43         6.0640    6.1610    0.9860 ha        1 MOL      0.149511
    100 H44         4.7750    5.9900   -3.1060 ha        1 MOL      0.149511
    101 H45         6.9360    6.8540   -2.2160 ho        1 MOL      0.424136
    102 N10         3.2050    2.6600   -0.3470 n         1 MOL     -0.180188
    103 C34         4.0530    1.7430   -1.0600 c3        1 MOL     -0.034706
    104 C35         5.1610    1.2490   -0.1190 c         1 MOL      0.312838
    105 O15         5.2610    0.0790    0.1580 o         1 MOL     -0.393930
    106 C36         4.5220    2.3670   -2.3880 c3        1 MOL      0.424993
    107 C37         3.4010    2.4300   -3.4430 c3        1 MOL     -0.305914
    108 C38         5.7020    1.5170   -3.0230 c3        1 MOL     -0.529479
    109 C39         3.8480    2.8670   -4.8110 c3        1 MOL     -0.089301
    110 H46         3.6870    3.3640    0.1950 hn        1 MOL      0.036928
    111 H47         3.5200    0.8470   -1.3920 h1        1 MOL      0.081019
    112 H48         4.9050    3.3870   -2.3440 hc        1 MOL     -0.084795
    113 H49         2.7450    3.1850   -2.9970 hc        1 MOL      0.115176
    114 H50         2.9590    1.4390   -3.5170 hc        1 MOL      0.115176
    115 H51         5.3240    0.5280   -3.2800 hc        1 MOL      0.127521
    116 H52         6.0950    2.0580   -3.8820 hc        1 MOL      0.127521
    117 H53         6.4980    1.5530   -2.2910 hc        1 MOL      0.127521
    118 H54         4.4410    3.7850   -4.7730 hc        1 MOL      0.035819
    119 H55         4.4770    2.0890   -5.2460 hc        1 MOL      0.035819
    120 H56         3.0420    3.0620   -5.5140 hc        1 MOL      0.035819
    121 N11         6.0080    2.1970    0.4290 n         1 MOL     -0.186076
    122 C40         6.8210    1.7230    1.4580 c3        1 MOL      0.008070
    123 C41         7.8950    0.7470    1.0290 c         1 MOL      0.226056
    124 O16         8.2890   -0.1020    1.8250 o         1 MOL     -0.453195
    125 C42         7.4510    2.9100    2.1230 c3        1 MOL      0.243150
    126 O17         6.5710    3.7790    2.8630 oh        1 MOL     -0.602351
    127 H57         6.1210    3.0800   -0.0450 hn        1 MOL      0.240980
    128 H58         6.2080    1.1180    2.1320 h1        1 MOL      0.142165
    129 H59         8.0720    3.5370    1.4850 h1        1 MOL     -0.004889
    130 H60         8.1780    2.4800    2.8170 h1        1 MOL     -0.004889
    131 H61         7.0320    4.6250    2.8710 ho        1 MOL      0.391865
    132 N12         8.3510    0.8600   -0.1950 n         1 MOL     -0.198019
    133 C43         9.1660   -0.0480   -0.9670 c3        1 MOL      0.322584
    134 C44         8.7840   -1.5860   -0.8640 c         1 MOL      0.321789
    135 O18         9.7160   -2.4220   -0.9140 o         1 MOL     -0.479877
    136 C45        10.6710    0.2830   -0.8140 c3        1 MOL     -0.332182
    137 H62         8.1160    1.6920   -0.7280 hn        1 MOL      0.170671
    138 H63         8.8940    0.1680   -2.0070 h1        1 MOL     -0.010287
    139 H64        10.9840    0.3140    0.2290 hc        1 MOL      0.087219
    140 H65        11.3220   -0.4330   -1.3070 hc        1 MOL      0.087219
    141 H66        10.8030    1.3270   -1.0950 hc        1 MOL      0.087219
    142 N13         7.4740   -1.8860   -0.6550 n         1 MOL     -0.252985
    143 C46         6.8520   -3.1940   -0.6190 c3        1 MOL      0.321958
    144 C47         5.5830   -3.3050   -1.4640 c         1 MOL      0.408187
    145 O19         5.1270   -2.3810   -2.1080 o         1 MOL     -0.463822
    146 C48         6.6920   -3.6950    0.8400 c3        1 MOL     -0.345361
    147 H67         6.8190   -1.1200   -0.6950 hn        1 MOL      0.059974
    148 H68         7.5540   -3.9220   -1.0400 h1        1 MOL     -0.015540
    149 H69         6.1080   -4.6180    0.8030 hc        1 MOL      0.096175
    150 H70         7.7050   -3.6620    1.2290 hc        1 MOL      0.096175
    151 H71         6.0820   -2.9880    1.4140 hc        1 MOL      0.096175
    152 N14         5.0930   -4.5850   -1.4960 n         1 MOL     -0.311332
    153 C49         4.0030   -5.1160   -2.3660 c3        1 MOL      0.081591
    154 C50         4.1270   -4.7570   -3.8320 c         1 MOL      0.381559
    155 O20         3.1170   -4.4610   -4.4970 o         1 MOL     -0.502871
    156 C51         2.5250   -4.9840   -1.8480 c3        1 MOL      0.215257
    157 C52         2.5540   -5.4180   -0.3660 c3        1 MOL      0.058575
    158 C53         1.0980   -5.4860    0.1510 c         1 MOL      0.448780
    159 O21         0.7110   -4.6720    1.0520 o         1 MOL     -0.580927
    160 O22         0.3470   -6.3270   -0.3810 o         1 MOL     -0.580927
    161 H72         5.5300   -5.2480   -0.8720 hn        1 MOL      0.220191
    162 H73         4.1260   -6.1920   -2.4850 h1        1 MOL      0.024766
    163 H74         1.8060   -5.6570   -2.3280 hc        1 MOL     -0.036528
    164 H75         2.2340   -3.9350   -1.8040 hc        1 MOL     -0.036528
    165 H76         3.1210   -4.7410    0.2760 hc        1 MOL     -0.081613
    166 H77         2.9820   -6.4100   -0.2450 hc        1 MOL     -0.081613
    167 N15         5.3500   -4.5270   -4.3510 n         1 MOL     -0.217819
    168 C54         5.5340   -3.7410   -5.5680 c3        1 MOL     -0.337074
    169 H78         5.2240   -4.3300   -6.4300 h1        1 MOL      0.143679
    170 H79         4.9310   -2.8350   -5.5110 h1        1 MOL      0.143679
    171 H80         6.5850   -3.4720   -5.6720 h1        1 MOL      0.143679
    172 H81         6.1030   -4.8180   -3.7460 hn        1 MOL      0.174181
    173 Ca1        -0.6130   -3.1940    2.5070 Ca        1 MOL      1.524562
    174 O23        -1.6090   -5.6770    2.5320 oh        1 MOL     -0.802811
    175 O24         0.2290   -1.5800    0.5640 oh        1 MOL     -0.802811
    176 H82        -1.3940   -6.3840    1.9360 ho        1 MOL      0.401509
    177 H83         1.1230   -1.3660    0.2970 ho        1 MOL      0.401509
    178 H84        -1.6810   -6.0890    3.3910 ho        1 MOL      0.401509
    179 H85        -0.3260   -1.0160    0.0230 ho        1 MOL      0.401509
    180 O25        -2.6130   -3.6320    4.2960 oh        1 MOL     -0.802811
    181 H86        -3.3960   -4.0590    3.9480 ho        1 MOL      0.401509
    182 H87        -2.7300   -3.6580    5.2500 ho        1 MOL      0.401509
    183 O26         2.1220   -2.7290    2.6380 oh        1 MOL     -0.802811
    184 H88         2.0960   -3.3640    1.9120 ho        1 MOL      0.401509
    185 H89         2.7250   -2.0420    2.3360 ho        1 MOL      0.401509
    186 O27         0.3920   -4.5830    4.5560 oh        1 MOL     -0.802811
    187 H90         0.6510   -4.0290    5.2840 ho        1 MOL      0.401509
    188 H91         0.0960   -5.3960    4.9650 ho        1 MOL      0.401509
@<TRIPOS>BOND
     1    1    2 1   
     2    1    4 1   
     3    1    5 1   
     4    1    6 1   
     5    2    3 2   
     6    2    7 1   
     7    7    8 1   
     8    7   15 1   
     9    8    9 1   
    10    8   11 1   
    11    8   16 1   
    12    9   10 2   
    13    9   19 1   
    14   11   12 1   
    15   11   17 1   
    16   11   18 1   
    17   12   13 1   
    18   12   14 1   
    19   19   20 1   
    20   19   28 1   
    21   20   21 1   
    22   20   23 1   
    23   20   29 1   
    24   21   22 2   
    25   21   41 1   
    26   23   24 1   
    27   23   30 1   
    28   23   31 1   
    29   24   25 1   
    30   24   32 1   
    31   24   33 1   
    32   25   26 1   
    33   25   34 1   
    34   25   35 1   
    35   26   27 1   
    36   26   36 1   
    37   26   37 1   
    38   27   38 1   
    39   27   39 1   
    40   27   40 1   
    41   41   42 1   
    42   41   49 1   
    43   42   43 1   
    44   42   45 1   
    45   42   50 1   
    46   43   44 2   
    47   43   53 1   
    48   45   46 1   
    49   45   51 1   
    50   45   52 1   
    51   46   47 1   
    52   46   48 1   
    53   53   54 1   
    54   53   57 1   
    55   54   55 1   
    56   54   58 1   
    57   54   59 1   
    58   55   56 2   
    59   55   60 1   
    60   60   61 1   
    61   60   68 1   
    62   61   62 1   
    63   61   64 1   
    64   61   69 1   
    65   62   63 2   
    66   62   74 1   
    67   64   65 1   
    68   64   70 1   
    69   64   71 1   
    70   65   66 1   
    71   65   67 2   
    72   66   72 1   
    73   66   73 1   
    74   74   75 1   
    75   74   78 1   
    76   75   76 1   
    77   75   79 1   
    78   75   80 1   
    79   76   77 2   
    80   76   81 1   
    81   81   82 1   
    82   81   93 1   
    83   82   83 1   
    84   82   85 1   
    85   82   94 1   
    86   83   84 2   
    87   83  102 1   
    88   85   86 1   
    89   85   95 1   
    90   85   96 1   
    91   86   87 ar  
    92   86   88 ar  
    93   87   89 ar  
    94   87   97 1   
    95   88   90 ar  
    96   88   98 1   
    97   89   91 ar  
    98   89   99 1   
    99   90   91 ar  
   100   90  100 1   
   101   91   92 1   
   102   92  101 1   
   103  102  103 1   
   104  102  110 1   
   105  103  104 1   
   106  103  106 1   
   107  103  111 1   
   108  104  105 2   
   109  104  121 1   
   110  106  107 1   
   111  106  108 1   
   112  106  112 1   
   113  107  109 1   
   114  107  113 1   
   115  107  114 1   
   116  108  115 1   
   117  108  116 1   
   118  108  117 1   
   119  109  118 1   
   120  109  119 1   
   121  109  120 1   
   122  121  122 1   
   123  121  127 1   
   124  122  123 1   
   125  122  125 1   
   126  122  128 1   
   127  123  124 2   
   128  123  132 1   
   129  125  126 1   
   130  125  129 1   
   131  125  130 1   
   132  126  131 1   
   133  132  133 1   
   134  132  137 1   
   135  133  134 1   
   136  133  136 1   
   137  133  138 1   
   138  134  135 2   
   139  134  142 1   
   140  136  139 1   
   141  136  140 1   
   142  136  141 1   
   143  142  143 1   
   144  142  147 1   
   145  143  144 1   
   146  143  146 1   
   147  143  148 1   
   148  144  145 2   
   149  144  152 1   
   150  146  149 1   
   151  146  150 1   
   152  146  151 1   
   153  152  153 1   
   154  152  161 1   
   155  153  154 1   
   156  153  156 1   
   157  153  162 1   
   158  154  155 2   
   159  154  167 1   
   160  156  157 1   
   161  156  163 1   
   162  156  164 1   
   163  157  158 1   
   164  157  165 1   
   165  157  166 1   
   166  158  159 1   
   167  158  160 1   
   168  167  168 1   
   169  167  172 1   
   170  168  169 1   
   171  168  170 1   
   172  168  171 1   
   173  174  176 1   
   174  174  178 1   
   175  175  177 1   
   176  175  179 1   
   177  180  181 1   
   178  180  182 1   
   179  183  184 1   
   180  183  185 1   
   181  186  187 1   
   182  186  188 1   
@<TRIPOS>SUBSTRUCTURE
     1 MOL         1 TEMP              0 ****  ****    0 ROOT
