@<TRIPOS>MOLECULE
MOL
  178   175     1     0     0
SMALL
resp


@<TRIPOS>ATOM
      1 C1         11.5150   -6.1130   -1.3100 c3        1 MOL     -0.433199
      2 C2         10.7140   -4.8400   -1.6970 c         1 MOL      0.730874
      3 O1          9.6960   -4.9930   -2.4240 o         1 MOL     -0.549176
      4 H1         11.3600   -6.3310   -0.2530 hc        1 MOL      0.108061
      5 H2         11.1710   -6.9550   -1.9090 hc        1 MOL      0.108061
      6 H3         12.5760   -5.9440   -1.4930 hc        1 MOL      0.108061
      7 N1         11.0250   -3.6080   -1.2490 n         1 MOL     -0.679604
      8 C3         11.9160   -3.2340   -0.1410 c3        1 MOL      0.106328
      9 C4         12.7640   -1.9040   -0.3510 c         1 MOL      0.468218
     10 O2         13.7230   -1.7240    0.3500 o         1 MOL     -0.556906
     11 C5         11.1620   -3.2760    1.2400 c3        1 MOL     -0.207781
     12 C6          9.7720   -2.6410    1.1970 c         1 MOL      0.689016
     13 O3          8.7300   -3.3420    1.2470 o         1 MOL     -0.717697
     14 O4          9.6270   -1.3640    1.2110 o         1 MOL     -0.717697
     15 H4         10.3190   -2.9180   -1.4430 hn        1 MOL      0.431153
     16 H5         12.6690   -4.0210   -0.1580 h1        1 MOL      0.047505
     17 H6         11.7480   -2.8970    2.0770 hc        1 MOL      0.065979
     18 H7         11.1420   -4.3510    1.3550 hc        1 MOL      0.065979
     19 N2         12.2640   -0.9800   -1.1090 n         1 MOL     -0.254006
     20 C7         12.5270    0.4660   -1.1570 c3        1 MOL      0.357898
     21 C8         11.3670    1.4070   -1.4190 c         1 MOL      0.275718
     22 O5         11.4740    2.5300   -1.9380 o         1 MOL     -0.530848
     23 C9         13.6800    0.7250   -2.2450 c3        1 MOL     -0.371035
     24 H8         11.4700   -1.1960   -1.6910 hn        1 MOL      0.113986
     25 H9         12.9470    0.6700   -0.1740 h1        1 MOL      0.007237
     26 H10        14.0350    1.7490   -2.2700 hc        1 MOL      0.090885
     27 H11        14.4800    0.0200   -2.0160 hc        1 MOL      0.090885
     28 H12        13.2720    0.4480   -3.2170 hc        1 MOL      0.090885
     29 N3         10.1590    0.8680   -1.1270 n         1 MOL      0.015100
     30 C10         8.8850    1.4310   -1.6190 c3        1 MOL      0.052591
     31 C11         8.0050    1.8260   -0.4240 c         1 MOL      0.299264
     32 O6          8.1200    1.2340    0.6640 o         1 MOL     -0.555131
     33 C12         8.1560    0.4530   -2.5360 c3        1 MOL     -0.185585
     34 C13         8.0830   -0.9610   -2.0010 c         1 MOL      0.852066
     35 O7          8.8320   -1.8340   -2.4330 o         1 MOL     -0.726366
     36 O8          7.1540   -1.2940   -1.1540 o         1 MOL     -0.726366
     37 H13        10.2040    0.0700   -0.5270 hn        1 MOL     -0.017507
     38 H14         9.1400    2.3410   -2.1860 h1        1 MOL      0.059294
     39 H15         8.6270    0.4540   -3.5230 hc        1 MOL      0.032542
     40 H16         7.1190    0.7830   -2.5470 hc        1 MOL      0.032542
     41 N4          7.0330    2.6760   -0.5920 n         1 MOL     -0.154204
     42 C14         5.9540    3.0950    0.3490 c3        1 MOL     -0.203681
     43 C15         5.1190    1.9140    0.8180 c         1 MOL      0.571922
     44 O9          5.3210    0.7260    0.4000 o         1 MOL     -0.538891
     45 H17         7.0060    3.2810   -1.4020 hn        1 MOL      0.226543
     46 H18         5.3050    3.8260   -0.1180 h1        1 MOL      0.108827
     47 H19         6.4080    3.6480    1.1830 h1        1 MOL      0.108827
     48 N5          4.1370    2.1270    1.6580 n         1 MOL     -0.521985
     49 C16         3.0440    1.2440    2.0940 c3        1 MOL      0.230727
     50 C17         1.6330    1.7000    1.6950 c         1 MOL      0.539245
     51 O10         0.6280    1.1140    2.0510 o         1 MOL     -0.484087
     52 C18         3.2140    1.0390    3.5670 c3        1 MOL     -0.436219
     53 C19         4.5260    0.3850    3.9830 c         1 MOL      0.758623
     54 N6          5.0760    0.8500    5.0970 n         1 MOL     -0.794676
     55 O11         5.1340   -0.5100    3.3790 o         1 MOL     -0.611486
     56 H20         4.1580    3.0560    2.0490 hn        1 MOL      0.275352
     57 H21         3.2480    0.2960    1.6140 h1        1 MOL      0.053106
     58 H22         2.4460    0.3870    3.9700 hc        1 MOL      0.122291
     59 H23         3.1190    2.0150    4.0280 hc        1 MOL      0.122291
     60 H24         4.4250    1.4230    5.6260 hn        1 MOL      0.371610
     61 H25         5.7920    0.2940    5.5330 hn        1 MOL      0.371610
     62 N7          1.6180    2.7620    0.9120 n         1 MOL     -0.428699
     63 C20         0.3960    3.3350    0.2890 c3        1 MOL      0.108270
     64 C21         0.5470    3.9080   -1.1300 c         1 MOL      0.517506
     65 O12         1.2680    3.2910   -1.8760 o         1 MOL     -0.527272
     66 H26         2.4940    3.2520    0.8000 hn        1 MOL      0.231043
     67 H27         0.0620    4.0830    0.9950 h1        1 MOL      0.037724
     68 H28        -0.4480    2.6510    0.3470 h1        1 MOL      0.037724
     69 N8         -0.1460    4.9930   -1.4780 n         1 MOL     -0.458342
     70 C22        -1.2340    5.6610   -0.7900 c3        1 MOL      0.113977
     71 C23        -2.5130    4.7520   -0.5760 c         1 MOL      0.319609
     72 O13        -3.5010    5.2810   -0.0250 o         1 MOL     -0.486153
     73 C24        -1.5640    6.9920   -1.5060 c3        1 MOL      0.338249
     74 C25        -2.1270    8.0580   -0.5030 c3        1 MOL     -0.449474
     75 O14        -0.4580    7.6790   -2.0620 oh        1 MOL     -0.602250
     76 H29         0.2120    5.4340   -2.3160 hn        1 MOL      0.259701
     77 H30        -0.8410    5.9470    0.1820 h1        1 MOL      0.052286
     78 H31        -2.2940    6.7420   -2.2840 h1        1 MOL      0.008710
     79 H32        -0.9010    8.3970   -2.5270 ho        1 MOL      0.373880
     80 H33        -1.5770    8.0170    0.4420 hc        1 MOL      0.114943
     81 H34        -1.9840    9.0410   -0.9410 hc        1 MOL      0.114943
     82 H35        -3.1840    7.8980   -0.3340 hc        1 MOL      0.114943
     83 N9         -2.4340    3.4900   -1.0220 n         1 MOL     -0.202249
     84 C26        -3.5910    2.4950   -1.1010 c3        1 MOL     -0.023471
     85 C27        -3.4000    1.4670   -0.0110 c         1 MOL      0.672628
     86 O15        -2.3800    0.8250    0.0400 o         1 MOL     -0.575082
     87 C28        -3.5740    1.9440   -2.5420 c3        1 MOL     -0.199186
     88 C29        -3.9970    3.1190   -3.4440 c3        1 MOL      0.196985
     89 C30        -4.5320    0.7620   -2.6400 c3        1 MOL      0.097742
     90 C31        -5.3450    3.7770   -3.0480 c3        1 MOL     -0.351693
     91 H36        -1.6150    3.2700   -1.5580 hn        1 MOL      0.206106
     92 H37        -4.4570    3.1420   -0.9450 h1        1 MOL      0.124858
     93 H38        -2.5730    1.6700   -2.8380 hc        1 MOL      0.066413
     94 H39        -4.0850    2.7170   -4.4480 hc        1 MOL     -0.037187
     95 H40        -3.2280    3.8770   -3.5730 hc        1 MOL     -0.037187
     96 H41        -4.5560    0.3220   -3.6400 hc        1 MOL      0.029801
     97 H42        -4.1540   -0.1120   -2.0980 hc        1 MOL      0.029801
     98 H43        -5.5310    0.9980   -2.2730 hc        1 MOL      0.029801
     99 H44        -5.9620    3.8610   -3.9440 hc        1 MOL      0.083733
    100 H45        -5.8060    3.0770   -2.3580 hc        1 MOL      0.083733
    101 H46        -5.1640    4.6930   -2.5010 hc        1 MOL      0.083733
    102 N10        -4.3930    1.1950    0.8530 n         1 MOL     -0.646591
    103 C32        -5.7370    1.8220    0.9030 c3        1 MOL      0.034462
    104 C33        -6.8370    0.7640    1.1920 c         1 MOL      0.545516
    105 O16        -6.6660   -0.1740    1.9400 o         1 MOL     -0.459977
    106 C34        -5.7990    2.9570    1.9300 c3        1 MOL      0.005115
    107 C35        -5.5470    2.4680    3.3800 c         1 MOL      0.594343
    108 O17        -6.5040    2.5580    4.1370 o         1 MOL     -0.684638
    109 O18        -4.4890    1.8480    3.6570 o         1 MOL     -0.684638
    110 H47        -4.2010    0.4940    1.5520 hn        1 MOL      0.380355
    111 H48        -6.0420    2.1900   -0.0830 h1        1 MOL      0.024536
    112 H49        -6.7590    3.4810    1.9030 hc        1 MOL     -0.032647
    113 H50        -5.1370    3.7330    1.5620 hc        1 MOL     -0.032647
    114 N11        -8.0100    0.8990    0.5880 n         1 MOL     -0.551119
    115 C36        -9.2010    0.0890    0.7510 c3        1 MOL      0.605700
    116 C37        -9.7980   -0.3440   -0.5850 c         1 MOL      0.030554
    117 O19        -9.7640    0.4210   -1.5030 o         1 MOL     -0.426077
    118 C38       -10.2630    0.9330    1.5250 c3        1 MOL     -0.332149
    119 C39       -11.4790    0.1060    1.7970 ca        1 MOL      0.189297
    120 C40       -12.4470   -0.0140    0.7490 ca        1 MOL     -0.237769
    121 C41       -11.4960   -0.7610    2.8890 ca        1 MOL     -0.237769
    122 C42       -13.4470   -0.9970    0.8650 ca        1 MOL     -0.113304
    123 C43       -12.5600   -1.5960    3.0730 ca        1 MOL     -0.113304
    124 C44       -13.4820   -1.8060    1.9930 ca        1 MOL     -0.106770
    125 H51        -8.1760    1.6930    0.0010 hn        1 MOL      0.281610
    126 H52        -8.9450   -0.7610    1.3820 h1        1 MOL     -0.053876
    127 H53       -10.5460    1.7510    0.8590 hc        1 MOL      0.088304
    128 H54        -9.7900    1.2820    2.4470 hc        1 MOL      0.088304
    129 H55       -12.3160    0.4830   -0.1970 ha        1 MOL      0.171383
    130 H56       -10.7320   -0.8000    3.6590 ha        1 MOL      0.171383
    131 H57       -14.1560   -1.1270    0.0620 ha        1 MOL      0.108269
    132 H58       -12.6000   -2.1850    3.9830 ha        1 MOL      0.108269
    133 H59       -14.3190   -2.4820    2.1000 ha        1 MOL      0.082371
    134 N12       -10.2590   -1.5960   -0.7420 n         1 MOL     -0.012283
    135 C45       -10.2810   -2.7420    0.2680 c3        1 MOL      0.122683
    136 C46        -8.7700   -3.3660    0.4540 c         1 MOL      0.403424
    137 O20        -8.2290   -3.7090    1.4890 o         1 MOL     -0.519441
    138 C47       -11.0860   -3.8350   -0.4600 c3        1 MOL     -0.091618
    139 C48       -12.0070   -3.1090   -1.4880 c3        1 MOL     -0.031583
    140 C49       -11.1680   -1.8610   -1.8670 c3        1 MOL     -0.136164
    141 H60       -10.7590   -2.5570    1.2280 h1        1 MOL      0.036540
    142 H61       -10.3880   -4.4230   -1.0520 hc        1 MOL      0.027914
    143 H62       -11.6460   -4.4310    0.2630 hc        1 MOL      0.027914
    144 H63       -12.2290   -3.7200   -2.3580 hc        1 MOL      0.022502
    145 H64       -12.9870   -2.8790   -1.0600 hc        1 MOL      0.022502
    146 H65       -10.5440   -2.1040   -2.7170 h1        1 MOL      0.086554
    147 H66       -11.8540   -1.0190   -1.9330 h1        1 MOL      0.086554
    148 N13        -8.2280   -3.3860   -0.7280 n         1 MOL     -0.495641
    149 C50        -6.9800   -4.0380   -1.0560 c3        1 MOL      0.263991
    150 C51        -6.9890   -5.5950   -0.7900 c         1 MOL      0.459575
    151 O21        -7.4220   -6.3320   -1.6410 o         1 MOL     -0.578005
    152 C52        -6.7380   -3.6620   -2.5310 c3        1 MOL     -0.089181
    153 C53        -6.6650   -2.1930   -2.7640 c3        1 MOL     -0.209155
    154 C54        -6.4890   -1.8280   -4.2390 c         1 MOL      0.794371
    155 O22        -7.2530   -1.0370   -4.7450 o         1 MOL     -0.752502
    156 O23        -5.5040   -2.2570   -4.9340 o         1 MOL     -0.752502
    157 H67        -8.7530   -3.0030   -1.4890 hn        1 MOL      0.420407
    158 H68        -6.1110   -3.6660   -0.5050 h1        1 MOL      0.056898
    159 H69        -7.6630   -3.9890   -3.0130 hc        1 MOL      0.008720
    160 H70        -5.8520   -4.1760   -2.9080 hc        1 MOL      0.008720
    161 H71        -5.8180   -1.8270   -2.1880 hc        1 MOL     -0.004770
    162 H72        -7.5200   -1.7020   -2.3150 hc        1 MOL     -0.004770
    163 N14        -6.4510   -6.1370    0.3130 n         1 MOL     -0.354183
    164 C55        -5.7650   -5.5090    1.4610 c3        1 MOL     -0.136341
    165 H73        -4.9920   -6.1810    1.8350 h1        1 MOL      0.081487
    166 H74        -5.3070   -4.5720    1.1440 h1        1 MOL      0.081487
    167 H75        -6.4870   -5.3110    2.2530 h1        1 MOL      0.081487
    168 H76        -6.3730   -7.1430    0.2440 hn        1 MOL      0.261141
    169 Ca1         7.0470   -1.1320    1.6210 Ca        1 MOL      1.755545
    170 O24         4.8920   -2.1470    0.3400 oh        1 MOL     -0.821086
    171 H77         3.9760   -1.9490    0.5480 ho        1 MOL      0.411153
    172 H78         4.8630   -2.4670   -0.5650 ho        1 MOL      0.411153
    173 O25         6.6930   -2.8460    3.5630 oh        1 MOL     -0.821086
    174 H79         6.7410   -2.8910    4.5120 ho        1 MOL      0.411153
    175 H80         6.1520   -3.5890    3.3100 ho        1 MOL      0.411153
    176 O26         8.3660   -0.1030    3.7500 oh        1 MOL     -0.821086
    177 H81         8.4410    0.8290    3.9800 ho        1 MOL      0.411153
    178 H82         9.2110   -0.4760    3.9940 ho        1 MOL      0.411153
@<TRIPOS>BOND
     1    1    2 1   
     2    1    4 1   
     3    1    5 1   
     4    1    6 1   
     5    2    3 2   
     6    2    7 1   
     7    7    8 1   
     8    7   15 1   
     9    8    9 1   
    10    8   11 1   
    11    8   16 1   
    12    9   10 2   
    13    9   19 1   
    14   11   12 1   
    15   11   17 1   
    16   11   18 1   
    17   12   13 1   
    18   12   14 1   
    19   19   20 1   
    20   19   24 1   
    21   20   21 1   
    22   20   23 1   
    23   20   25 1   
    24   21   22 2   
    25   21   29 1   
    26   23   26 1   
    27   23   27 1   
    28   23   28 1   
    29   29   30 1   
    30   29   37 1   
    31   30   31 1   
    32   30   33 1   
    33   30   38 1   
    34   31   32 2   
    35   31   41 1   
    36   33   34 1   
    37   33   39 1   
    38   33   40 1   
    39   34   35 1   
    40   34   36 1   
    41   41   42 1   
    42   41   45 1   
    43   42   43 1   
    44   42   46 1   
    45   42   47 1   
    46   43   44 2   
    47   43   48 1   
    48   48   49 1   
    49   48   56 1   
    50   49   50 1   
    51   49   52 1   
    52   49   57 1   
    53   50   51 2   
    54   50   62 1   
    55   52   53 1   
    56   52   58 1   
    57   52   59 1   
    58   53   54 1   
    59   53   55 2   
    60   54   60 1   
    61   54   61 1   
    62   62   63 1   
    63   62   66 1   
    64   63   64 1   
    65   63   67 1   
    66   63   68 1   
    67   64   65 2   
    68   64   69 1   
    69   69   70 1   
    70   69   76 1   
    71   70   71 1   
    72   70   73 1   
    73   70   77 1   
    74   71   72 2   
    75   71   83 1   
    76   73   74 1   
    77   73   75 1   
    78   73   78 1   
    79   74   80 1   
    80   74   81 1   
    81   74   82 1   
    82   75   79 1   
    83   83   84 1   
    84   83   91 1   
    85   84   85 1   
    86   84   87 1   
    87   84   92 1   
    88   85   86 2   
    89   85  102 1   
    90   87   88 1   
    91   87   89 1   
    92   87   93 1   
    93   88   90 1   
    94   88   94 1   
    95   88   95 1   
    96   89   96 1   
    97   89   97 1   
    98   89   98 1   
    99   90   99 1   
   100   90  100 1   
   101   90  101 1   
   102  102  103 1   
   103  102  110 1   
   104  103  104 1   
   105  103  106 1   
   106  103  111 1   
   107  104  105 2   
   108  104  114 1   
   109  106  107 1   
   110  106  112 1   
   111  106  113 1   
   112  107  108 1   
   113  107  109 1   
   114  114  115 1   
   115  114  125 1   
   116  115  116 1   
   117  115  118 1   
   118  115  126 1   
   119  116  117 2   
   120  116  134 1   
   121  118  119 1   
   122  118  127 1   
   123  118  128 1   
   124  119  120 ar  
   125  119  121 ar  
   126  120  122 ar  
   127  120  129 1   
   128  121  123 ar  
   129  121  130 1   
   130  122  124 ar  
   131  122  131 1   
   132  123  124 ar  
   133  123  132 1   
   134  124  133 1   
   135  134  135 1   
   136  134  140 1   
   137  135  136 1   
   138  135  138 1   
   139  135  141 1   
   140  136  137 2   
   141  136  148 1   
   142  138  139 1   
   143  138  142 1   
   144  138  143 1   
   145  139  140 1   
   146  139  144 1   
   147  139  145 1   
   148  140  146 1   
   149  140  147 1   
   150  148  149 1   
   151  148  157 1   
   152  149  150 1   
   153  149  152 1   
   154  149  158 1   
   155  150  151 2   
   156  150  163 1   
   157  152  153 1   
   158  152  159 1   
   159  152  160 1   
   160  153  154 1   
   161  153  161 1   
   162  153  162 1   
   163  154  155 1   
   164  154  156 1   
   165  163  164 1   
   166  163  168 1   
   167  164  165 1   
   168  164  166 1   
   169  164  167 1   
   170  170  171 1   
   171  170  172 1   
   172  173  174 1   
   173  173  175 1   
   174  176  177 1   
   175  176  178 1   
@<TRIPOS>SUBSTRUCTURE
     1 MOL         1 TEMP              0 ****  ****    0 ROOT
