@<TRIPOS>MOLECULE
MOL
  189   185     1     0     0
SMALL
resp


@<TRIPOS>ATOM
      1 C1          8.6810    0.3620    2.8670 c3        1 MOL     -0.471093
      2 C2          7.7750    0.4540    1.6240 c         1 MOL      0.725810
      3 O1          6.5160    0.3010    1.7850 o         1 MOL     -0.702184
      4 H1          9.6770    0.0380    2.5660 hc        1 MOL      0.124163
      5 H2          8.7470    1.3410    3.3420 hc        1 MOL      0.124163
      6 H3          8.2630   -0.3570    3.5700 hc        1 MOL      0.124163
      7 N1          8.2590    0.7140    0.4020 n         1 MOL     -0.449168
      8 C3          7.4480    0.7890   -0.8640 c3        1 MOL     -0.065493
      9 C4          6.9710   -0.5390   -1.4280 c         1 MOL      0.521184
     10 O2          7.0800   -0.8640   -2.5800 o         1 MOL     -0.469433
     11 C5          8.3450    1.5130   -1.8310 c3        1 MOL     -0.358566
     12 C6          9.7820    1.0320   -2.1850 c         1 MOL      0.779986
     13 O3         10.4460    1.6400   -3.0720 o         1 MOL     -0.675070
     14 O4         10.2210    0.0050   -1.6160 o         1 MOL     -0.675070
     15 H4          9.2490    0.6130    0.2820 hn        1 MOL      0.242381
     16 H5          6.6000    1.4610   -0.7310 h1        1 MOL      0.153771
     17 H6          8.5250    2.5080   -1.4220 hc        1 MOL      0.105027
     18 H7          7.6870    1.5700   -2.7010 hc        1 MOL      0.105027
     19 N2          6.4790   -1.3680   -0.5340 n         1 MOL     -0.237435
     20 C7          6.1660   -2.7650   -0.8300 c3        1 MOL     -0.074974
     21 C8          4.6380   -2.9700   -1.1500 c         1 MOL      0.511022
     22 O5          4.3140   -3.7460   -2.0480 o         1 MOL     -0.558363
     23 C9          6.5730   -3.7150    0.2980 c3        1 MOL      0.188264
     24 C10         8.0950   -3.7960    0.5070 c3        1 MOL     -0.195437
     25 C11         8.4740   -4.8960    1.5810 c3        1 MOL     -0.038214
     26 C12         9.9700   -4.8280    1.6150 c3        1 MOL      0.123786
     27 N3         10.4330   -5.4490    2.8910 n4        1 MOL     -0.401916
     28 H8          6.4050   -1.0510    0.4170 hn        1 MOL      0.204406
     29 H9          6.7550   -3.0840   -1.6870 h1        1 MOL      0.096486
     30 H10         6.1440   -4.7080    0.1170 hc        1 MOL     -0.026357
     31 H11         6.1170   -3.4380    1.2540 hc        1 MOL     -0.026357
     32 H12         8.5310   -2.8450    0.8000 hc        1 MOL      0.061704
     33 H13         8.5040   -4.1180   -0.4510 hc        1 MOL      0.061704
     34 H14         8.1960   -5.9090    1.2740 hc        1 MOL      0.044623
     35 H15         8.0580   -4.5900    2.5500 hc        1 MOL      0.044623
     36 H16        10.4280   -3.8490    1.5620 hx        1 MOL      0.079156
     37 H17        10.3450   -5.4100    0.7620 hx        1 MOL      0.079156
     38 H18        10.2230   -6.4390    2.9890 hn        1 MOL      0.304655
     39 H19        11.4350   -5.3810    2.9960 hn        1 MOL      0.304655
     40 H20        10.0380   -4.9010    3.6420 hn        1 MOL      0.304655
     41 N4          3.7030   -2.3730   -0.4540 n         1 MOL     -0.337145
     42 C13         3.7210   -1.5310    0.6780 c3        1 MOL     -0.063507
     43 C14         3.4230   -0.0690    0.1070 c         1 MOL      0.231519
     44 O6          2.9680    0.1330   -1.0110 o         1 MOL     -0.399935
     45 C15         2.5530   -1.8580    1.6310 c3        1 MOL     -0.137877
     46 C16         1.2760   -2.3750    0.8850 c         1 MOL      0.521776
     47 O7          1.1320   -1.9360   -0.2720 o         1 MOL     -0.570903
     48 O8          0.4730   -3.1770    1.4290 o         1 MOL     -0.570903
     49 H21         2.8310   -2.4930   -0.9400 hn        1 MOL      0.342800
     50 H22         4.6500   -1.5370    1.2580 h1        1 MOL      0.099062
     51 H23         2.2680   -0.9770    2.2080 hc        1 MOL      0.040103
     52 H24         2.8080   -2.6240    2.3650 hc        1 MOL      0.040103
     53 N5          3.6760    0.9010    0.9470 n         1 MOL     -0.094659
     54 C17         3.7520    2.3050    0.5650 c3        1 MOL     -0.249076
     55 C18         2.5050    2.8750   -0.1330 c         1 MOL      0.586202
     56 O9          1.4540    2.2210   -0.0800 o         1 MOL     -0.582990
     57 H25         4.0750    0.7290    1.8630 hn        1 MOL      0.269715
     58 H26         4.6030    2.4170   -0.1100 h1        1 MOL      0.112328
     59 H27         3.9160    2.8260    1.5150 h1        1 MOL      0.112328
     60 N6          2.5630    4.0780   -0.6980 n         1 MOL     -0.458618
     61 C19         1.4610    4.6560   -1.4640 c3        1 MOL      0.271477
     62 C20         1.3200    6.1690   -1.2820 c         1 MOL      0.376968
     63 O10         2.3380    6.8780   -1.0610 o         1 MOL     -0.518491
     64 C21         1.6560    4.3380   -3.0130 c3        1 MOL     -0.057044
     65 C22         1.9090    2.9460   -3.4600 c         1 MOL      0.524827
     66 O11         1.1390    2.0580   -3.0250 o         1 MOL     -0.631430
     67 O12         2.7620    2.7450   -4.3570 o         1 MOL     -0.631430
     68 H28         3.4150    4.6160   -0.6300 hn        1 MOL      0.286532
     69 H29         0.5100    4.2270   -1.1420 h1        1 MOL     -0.098566
     70 H30         2.4230    5.0440   -3.3420 hc        1 MOL      0.034878
     71 H31         0.7730    4.7280   -3.5220 hc        1 MOL      0.034878
     72 N7          0.1530    6.7640   -1.4690 n         1 MOL     -0.433632
     73 C23        -1.1900    6.1180   -1.4920 c3        1 MOL     -0.085471
     74 C24        -1.6290    5.3940   -0.2130 c         1 MOL      0.642181
     75 O13        -1.0400    5.5860    0.8340 o         1 MOL     -0.504553
     76 H32         0.1410    7.7430   -1.2240 hn        1 MOL      0.328827
     77 H33        -1.1850    5.4400   -2.3410 h1        1 MOL      0.085736
     78 H34        -1.8750    6.9530   -1.6630 h1        1 MOL      0.085736
     79 N8         -2.7820    4.7040   -0.2410 n         1 MOL     -0.510678
     80 C25        -3.5290    4.1820    0.9930 c3        1 MOL     -0.022174
     81 C26        -2.8720    3.1350    1.9010 c         1 MOL      0.657849
     82 O14        -3.5690    2.2150    2.3730 o         1 MOL     -0.624923
     83 C27        -5.0180    3.8260    0.6230 c3        1 MOL      0.545536
     84 C28        -5.3400    2.8650   -0.5550 c3        1 MOL     -0.207515
     85 O15        -5.7730    4.9270    0.3690 oh        1 MOL     -0.685319
     86 H35        -3.1740    4.5620   -1.1660 hn        1 MOL      0.280993
     87 H36        -3.6820    5.0280    1.6560 h1        1 MOL      0.073235
     88 H37        -5.4530    3.3740    1.5080 h1        1 MOL     -0.099045
     89 H38        -6.6190    4.8390    0.8130 ho        1 MOL      0.410773
     90 H39        -6.4090    2.7300   -0.4970 hc        1 MOL      0.040284
     91 H40        -4.9270    3.3300   -1.4530 hc        1 MOL      0.040284
     92 H41        -4.7850    1.9490   -0.3390 hc        1 MOL      0.040284
     93 N9         -1.5520    3.1110    2.0680 n         1 MOL     -0.716177
     94 C29        -0.9300    2.0610    2.9880 c3        1 MOL      0.058635
     95 C30        -1.1580    0.7010    2.3610 c         1 MOL      0.507361
     96 O16        -0.8290    0.6140    1.1700 o         1 MOL     -0.449394
     97 C31         0.4510    2.4030    3.4020 c3        1 MOL      0.362671
     98 C32         0.6260    3.9180    3.6140 c3        1 MOL     -0.037118
     99 C33         0.7690    1.5110    4.6760 c3        1 MOL     -0.486596
    100 C34        -0.4530    4.4550    4.5500 c3        1 MOL     -0.163852
    101 H42        -0.9500    3.7060    1.5250 hn        1 MOL      0.441328
    102 H43        -1.4850    1.9960    3.9210 h1        1 MOL      0.073308
    103 H44         1.0490    2.0960    2.5480 hc        1 MOL     -0.157184
    104 H45         0.5450    4.4170    2.6470 hc        1 MOL      0.032030
    105 H46         1.6310    4.1200    4.0020 hc        1 MOL      0.032030
    106 H47         1.7180    1.8220    5.1150 hc        1 MOL      0.116694
    107 H48        -0.0500    1.5340    5.3810 hc        1 MOL      0.116694
    108 H49         0.9100    0.4860    4.3290 hc        1 MOL      0.116694
    109 H50        -0.6310    3.6880    5.3140 hc        1 MOL      0.035522
    110 H51        -0.1560    5.4240    4.9370 hc        1 MOL      0.035522
    111 H52        -1.4550    4.5860    4.1310 hc        1 MOL      0.035522
    112 N10        -1.8120   -0.2130    3.1200 n         1 MOL     -0.228557
    113 C35        -2.0830   -1.5890    2.7090 c3        1 MOL     -0.606032
    114 C36        -3.5290   -1.7340    2.2440 c         1 MOL      0.804104
    115 O17        -3.9520   -2.8480    1.9240 o         1 MOL     -0.632776
    116 C37        -1.7880   -2.6050    3.8380 c3        1 MOL      0.452959
    117 C38        -2.3570   -2.1200    5.1710 c3        1 MOL     -0.251921
    118 O18        -0.3980   -2.9160    3.9810 oh        1 MOL     -0.641630
    119 H53        -2.2700    0.0940    3.9650 hn        1 MOL      0.186780
    120 H54        -1.3540   -1.7280    1.9040 h1        1 MOL      0.376531
    121 H55        -2.2680   -3.5580    3.6280 h1        1 MOL      0.008378
    122 H56        -0.0370   -3.1070    3.1130 ho        1 MOL      0.344745
    123 H57        -3.4290   -1.9490    5.0570 hc        1 MOL      0.066129
    124 H58        -2.3130   -2.9240    5.9040 hc        1 MOL      0.066129
    125 H59        -1.7660   -1.3250    5.6150 hc        1 MOL      0.066129
    126 N11        -4.3810   -0.7070    2.1240 n         1 MOL     -0.433805
    127 C39        -5.7770   -0.8020    1.8630 c3        1 MOL     -0.177290
    128 C40        -6.1220   -1.2810    0.4760 c         1 MOL      0.571210
    129 O19        -5.8570   -0.6380   -0.5350 o         1 MOL     -0.455186
    130 C41        -6.4990    0.4840    2.1970 c3        1 MOL      0.483898
    131 C42        -7.8710    0.6960    1.5890 c3        1 MOL     -0.542171
    132 O20        -6.5320    0.5520    3.6050 oh        1 MOL     -0.627167
    133 H60        -3.9380    0.1810    2.2690 hn        1 MOL      0.302160
    134 H61        -6.2770   -1.5320    2.4970 h1        1 MOL      0.084738
    135 H62        -5.8640    1.2940    1.8470 h1        1 MOL      0.033087
    136 H63        -5.8110    1.1290    3.8420 ho        1 MOL      0.374279
    137 H64        -8.3060    1.6040    1.9960 hc        1 MOL      0.131798
    138 H65        -7.7910    0.6110    0.5120 hc        1 MOL      0.131798
    139 H66        -8.6100   -0.0400    1.9090 hc        1 MOL      0.131798
    140 N12        -6.7110   -2.4880    0.3710 n         1 MOL     -0.334143
    141 C43        -6.8850   -3.2810   -0.8060 c3        1 MOL      0.068323
    142 C44        -5.7410   -3.2170   -1.8270 c         1 MOL      0.480065
    143 O21        -5.9010   -2.6740   -2.8950 o         1 MOL     -0.501373
    144 C45        -8.2780   -2.9620   -1.3990 c3        1 MOL     -0.173139
    145 C46        -9.4920   -3.1510   -0.4760 c3        1 MOL      0.190243
    146 C47       -10.8510   -3.0160   -1.1930 c3        1 MOL     -0.187600
    147 C48       -11.3070   -1.6630   -1.6240 c3        1 MOL      0.191245
    148 N13       -12.3820   -1.7290   -2.6380 n4        1 MOL     -0.313473
    149 H67        -7.1070   -2.8800    1.2180 hn        1 MOL      0.223448
    150 H68        -6.9370   -4.3070   -0.4500 h1        1 MOL      0.059299
    151 H69        -8.5460   -3.5450   -2.2780 hc        1 MOL      0.063152
    152 H70        -8.1200   -1.9140   -1.6720 hc        1 MOL      0.063152
    153 H71        -9.4310   -2.4400    0.3510 hc        1 MOL     -0.032304
    154 H72        -9.4760   -4.1740   -0.0920 hc        1 MOL     -0.032304
    155 H73       -11.6270   -3.3020   -0.4830 hc        1 MOL      0.055758
    156 H74       -10.7550   -3.7420   -1.9990 hc        1 MOL      0.055758
    157 H75       -10.4870   -0.9820   -1.8800 hx        1 MOL      0.029567
    158 H76       -11.7610   -1.2290   -0.7380 hx        1 MOL      0.029567
    159 H77       -12.8980   -0.8620   -2.6330 hn        1 MOL      0.265009
    160 H78       -11.9750   -1.8820   -3.5530 hn        1 MOL      0.265009
    161 H79       -12.9900   -2.4800   -2.3550 hn        1 MOL      0.265009
    162 N14        -4.5000   -3.3620   -1.3550 n         1 MOL     -0.657470
    163 C49        -3.3490   -2.6700   -1.9410 c3        1 MOL      0.516504
    164 C50        -2.1730   -2.5770   -0.9190 c         1 MOL      0.113853
    165 O22        -1.6850   -1.4890   -0.6740 o         1 MOL     -0.583165
    166 C51        -2.9390   -3.3590   -3.2410 c3        1 MOL     -0.291812
    167 C52        -1.6390   -2.8220   -3.8900 c3        1 MOL      0.083928
    168 C53        -1.7620   -1.2870   -4.1640 c         1 MOL      0.622446
    169 O23        -2.4320   -0.9170   -5.1250 o         1 MOL     -0.648897
    170 O24        -1.1870   -0.4200   -3.4660 o         1 MOL     -0.648897
    171 H80        -4.4020   -3.5700   -0.3770 hn        1 MOL      0.310976
    172 H81        -3.6870   -1.6510   -2.1310 h1        1 MOL      0.053324
    173 H82        -3.7210   -3.2530   -4.0010 hc        1 MOL      0.083534
    174 H83        -2.8240   -4.4120   -2.9950 hc        1 MOL      0.083534
    175 H84        -1.5760   -3.4210   -4.7950 hc        1 MOL     -0.013634
    176 H85        -0.7680   -3.0590   -3.2740 hc        1 MOL     -0.013634
    177 N15        -1.7580   -3.6380   -0.2050 n         1 MOL     -0.030857
    178 C54        -1.9310   -5.0510   -0.3400 c3        1 MOL     -0.152952
    179 H86        -0.9840   -5.5530   -0.1400 h1        1 MOL      0.053843
    180 H87        -2.6810   -5.3950    0.3720 h1        1 MOL      0.053843
    181 H88        -2.2590   -5.2830   -1.3530 h1        1 MOL      0.053843
    182 H89        -1.0010   -3.5480    0.4510 hn        1 MOL      0.218665
    183 Ca1         0.1900    0.2630   -1.4040 Ca        1 MOL      1.660868
    184 O25        -2.0490    1.6540   -1.5100 oh        1 MOL     -0.884927
    185 H90        -2.9350    1.5640   -1.1510 ho        1 MOL      0.416792
    186 H91        -2.0820    2.4600   -2.0210 ho        1 MOL      0.416792
    187 O26         1.5530   -1.3710   -3.5310 oh        1 MOL     -0.884927
    188 H92         2.4350   -1.0320   -3.6310 ho        1 MOL      0.416792
    189 H93         1.1260   -1.1760   -4.3730 ho        1 MOL      0.416792
@<TRIPOS>BOND
     1    1    2 1   
     2    1    4 1   
     3    1    5 1   
     4    1    6 1   
     5    2    3 2   
     6    2    7 1   
     7    7    8 1   
     8    7   15 1   
     9    8    9 1   
    10    8   11 1   
    11    8   16 1   
    12    9   10 2   
    13    9   19 1   
    14   11   12 1   
    15   11   17 1   
    16   11   18 1   
    17   12   13 1   
    18   12   14 1   
    19   19   20 1   
    20   19   28 1   
    21   20   21 1   
    22   20   23 1   
    23   20   29 1   
    24   21   22 2   
    25   21   41 1   
    26   23   24 1   
    27   23   30 1   
    28   23   31 1   
    29   24   25 1   
    30   24   32 1   
    31   24   33 1   
    32   25   26 1   
    33   25   34 1   
    34   25   35 1   
    35   26   27 1   
    36   26   36 1   
    37   26   37 1   
    38   27   38 1   
    39   27   39 1   
    40   27   40 1   
    41   41   42 1   
    42   41   49 1   
    43   42   43 1   
    44   42   45 1   
    45   42   50 1   
    46   43   44 2   
    47   43   53 1   
    48   45   46 1   
    49   45   51 1   
    50   45   52 1   
    51   46   47 1   
    52   46   48 1   
    53   53   54 1   
    54   53   57 1   
    55   54   55 1   
    56   54   58 1   
    57   54   59 1   
    58   55   56 2   
    59   55   60 1   
    60   60   61 1   
    61   60   68 1   
    62   61   62 1   
    63   61   64 1   
    64   61   69 1   
    65   62   63 2   
    66   62   72 1   
    67   64   65 1   
    68   64   70 1   
    69   64   71 1   
    70   65   66 1   
    71   65   67 1   
    72   72   73 1   
    73   72   76 1   
    74   73   74 1   
    75   73   77 1   
    76   73   78 1   
    77   74   75 2   
    78   74   79 1   
    79   79   80 1   
    80   79   86 1   
    81   80   81 1   
    82   80   83 1   
    83   80   87 1   
    84   81   82 2   
    85   81   93 1   
    86   83   84 1   
    87   83   85 1   
    88   83   88 1   
    89   84   90 1   
    90   84   91 1   
    91   84   92 1   
    92   85   89 1   
    93   93   94 1   
    94   93  101 1   
    95   94   95 1   
    96   94   97 1   
    97   94  102 1   
    98   95   96 2   
    99   95  112 1   
   100   97   98 1   
   101   97   99 1   
   102   97  103 1   
   103   98  100 1   
   104   98  104 1   
   105   98  105 1   
   106   99  106 1   
   107   99  107 1   
   108   99  108 1   
   109  100  109 1   
   110  100  110 1   
   111  100  111 1   
   112  112  113 1   
   113  112  119 1   
   114  113  114 1   
   115  113  116 1   
   116  113  120 1   
   117  114  115 2   
   118  114  126 1   
   119  116  117 1   
   120  116  118 1   
   121  116  121 1   
   122  117  123 1   
   123  117  124 1   
   124  117  125 1   
   125  118  122 1   
   126  126  127 1   
   127  126  133 1   
   128  127  128 1   
   129  127  130 1   
   130  127  134 1   
   131  128  129 2   
   132  128  140 1   
   133  130  131 1   
   134  130  132 1   
   135  130  135 1   
   136  131  137 1   
   137  131  138 1   
   138  131  139 1   
   139  132  136 1   
   140  140  141 1   
   141  140  149 1   
   142  141  142 1   
   143  141  144 1   
   144  141  150 1   
   145  142  143 2   
   146  142  162 1   
   147  144  145 1   
   148  144  151 1   
   149  144  152 1   
   150  145  146 1   
   151  145  153 1   
   152  145  154 1   
   153  146  147 1   
   154  146  155 1   
   155  146  156 1   
   156  147  148 1   
   157  147  157 1   
   158  147  158 1   
   159  148  159 1   
   160  148  160 1   
   161  148  161 1   
   162  162  163 1   
   163  162  171 1   
   164  163  164 1   
   165  163  166 1   
   166  163  172 1   
   167  164  165 2   
   168  164  177 1   
   169  166  167 1   
   170  166  173 1   
   171  166  174 1   
   172  167  168 1   
   173  167  175 1   
   174  167  176 1   
   175  168  169 1   
   176  168  170 1   
   177  177  178 1   
   178  177  182 1   
   179  178  179 1   
   180  178  180 1   
   181  178  181 1   
   182  184  185 1   
   183  184  186 1   
   184  187  188 1   
   185  187  189 1   
@<TRIPOS>SUBSTRUCTURE
     1 MOL         1 TEMP              0 ****  ****    0 ROOT
