@<TRIPOS>MOLECULE
MOL
  192   187     1     0     0
SMALL
resp


@<TRIPOS>ATOM
      1 C1         -3.3560   -2.3170    2.4290 c3        1 MOL     -0.210786
      2 C2         -2.5880   -2.8990    1.2190 c         1 MOL      0.672748
      3 O1         -2.0430   -2.1700    0.3990 o         1 MOL     -0.432503
      4 H1         -4.3530   -2.0090    2.1130 hc        1 MOL      0.044435
      5 H2         -3.4410   -3.0770    3.2050 hc        1 MOL      0.044435
      6 H3         -2.8170   -1.4550    2.8210 hc        1 MOL      0.044435
      7 N1         -2.6150   -4.2050    0.9590 n         1 MOL     -0.814668
      8 C3         -1.7220   -4.8650   -0.0060 c3        1 MOL      0.063950
      9 C4         -0.2130   -4.6380    0.1900 c         1 MOL      0.719728
     10 O2          0.5040   -4.2430   -0.7650 o         1 MOL     -0.519326
     11 C5         -2.1910   -4.7270   -1.4220 c3        1 MOL     -0.377201
     12 C6         -3.6570   -4.5920   -1.6220 c         1 MOL      0.713479
     13 O3         -4.3160   -5.6850   -1.5360 o         1 MOL     -0.671806
     14 O4         -4.2200   -3.5230   -1.9300 o         1 MOL     -0.671806
     15 H4         -3.1980   -4.7430    1.5700 hn        1 MOL      0.364476
     16 H5         -1.8500   -5.9070    0.2840 h1        1 MOL      0.088927
     17 H6         -1.8540   -5.6400   -1.9300 hc        1 MOL      0.133322
     18 H7         -1.7350   -3.8070   -1.7800 hc        1 MOL      0.133322
     19 N2          0.2700   -4.8300    1.4450 n         1 MOL     -0.623224
     20 C7          1.6640   -4.7860    1.7630 c3        1 MOL     -0.100732
     21 C8          2.4500   -6.0060    1.1280 c         1 MOL      0.415101
     22 O5          1.8690   -7.0120    0.8650 o         1 MOL     -0.532677
     23 C9          1.9690   -4.7440    3.2740 c3        1 MOL      0.107216
     24 C10         1.5680   -6.0360    4.0510 c3        1 MOL     -0.061217
     25 C11         1.3460   -3.5030    3.9390 c3        1 MOL      0.178631
     26 C12         1.9190   -6.1860    5.5410 c3        1 MOL     -0.102368
     27 H8         -0.4010   -4.9970    2.1920 hn        1 MOL      0.361568
     28 H9          2.0820   -3.8990    1.2750 h1        1 MOL      0.173544
     29 H10         3.0220   -4.5480    3.4720 hc        1 MOL      0.099691
     30 H11         1.9990   -6.9500    3.6430 hc        1 MOL      0.030484
     31 H12         0.5060   -6.2410    3.9460 hc        1 MOL      0.030484
     32 H13         1.7900   -3.4550    4.9310 hc        1 MOL     -0.076534
     33 H14         1.6030   -2.6300    3.3380 hc        1 MOL     -0.076534
     34 H15         0.2730   -3.7160    3.9280 hc        1 MOL     -0.076534
     35 H16         1.0880   -5.8650    6.1800 hc        1 MOL      0.017827
     36 H17         1.9840   -7.2380    5.8100 hc        1 MOL      0.017827
     37 H18         2.8990   -5.7520    5.7670 hc        1 MOL      0.017827
     38 N3          3.7810   -5.9090    0.8780 n         1 MOL     -0.391932
     39 C13         4.6650   -4.7440    1.0880 c3        1 MOL     -0.026204
     40 C14         4.7420   -3.8240   -0.1380 c         1 MOL      0.514365
     41 O6          4.7750   -2.6050    0.0470 o         1 MOL     -0.542495
     42 C15         6.0320   -5.2300    1.6480 c3        1 MOL     -0.300097
     43 C16         6.8600   -6.1120    0.7530 c         1 MOL      0.811535
     44 O7          7.9490   -6.5280    1.2260 o         1 MOL     -0.752247
     45 O8          6.4900   -6.3610   -0.3950 o         1 MOL     -0.752247
     46 H19         4.1450   -6.6430    0.2830 hn        1 MOL      0.281703
     47 H20         4.2330   -4.0900    1.8440 h1        1 MOL      0.058547
     48 H21         5.9090   -5.7760    2.5850 hc        1 MOL      0.060926
     49 H22         6.6420   -4.3510    1.8630 hc        1 MOL      0.060926
     50 N4          4.3660   -4.3130   -1.2880 n         1 MOL     -0.194462
     51 C17         4.1540   -3.5750   -2.4970 c3        1 MOL     -0.351722
     52 C18         5.3680   -2.7780   -2.8970 c         1 MOL      0.632121
     53 O9          6.3280   -3.2520   -3.5090 o         1 MOL     -0.568181
     54 H23         4.2630   -5.3150   -1.3130 hn        1 MOL      0.278890
     55 H24         3.2630   -2.9590   -2.4070 h1        1 MOL      0.143248
     56 H25         3.9130   -4.3270   -3.2450 h1        1 MOL      0.143248
     57 N5          5.3710   -1.4020   -2.7090 n         1 MOL     -0.495971
     58 C19         6.4220   -0.4780   -3.2250 c3        1 MOL      0.193031
     59 C20         7.3110    0.1240   -2.1640 c         1 MOL      0.305408
     60 O10         8.2260    0.8380   -2.5210 o         1 MOL     -0.524801
     61 C21         5.7460    0.6350   -4.0710 c3        1 MOL     -0.296268
     62 C22         4.4290    1.2470   -3.4610 c         1 MOL      0.745900
     63 O11         4.6200    2.0480   -2.5260 o         1 MOL     -0.707626
     64 O12         3.2850    0.8220   -3.8390 o         1 MOL     -0.707626
     65 H26         4.5730   -1.0460   -2.2180 hn        1 MOL      0.321269
     66 H27         7.0950   -0.9810   -3.9300 h1        1 MOL      0.098493
     67 H28         5.5850    0.1560   -5.0420 hc        1 MOL      0.038993
     68 H29         6.4380    1.4580   -4.2200 hc        1 MOL      0.038993
     69 N6          7.0750   -0.2080   -0.8600 n         1 MOL     -0.094863
     70 C23         7.7850    0.3410    0.2670 c3        1 MOL     -0.391193
     71 C24         7.5050    1.7850    0.5780 c         1 MOL      0.586458
     72 O13         8.0330    2.3030    1.5620 o         1 MOL     -0.616711
     73 H30         6.2900   -0.8450   -0.7320 hn        1 MOL      0.189295
     74 H31         8.8600    0.2350    0.1170 h1        1 MOL      0.158020
     75 H32         7.3990   -0.2270    1.1140 h1        1 MOL      0.158020
     76 N7          6.8300    2.5030   -0.3120 n         1 MOL     -0.051388
     77 C25         6.5100    3.9140   -0.2540 c3        1 MOL      0.144338
     78 C26         5.8020    4.4670    0.9500 c         1 MOL      0.512781
     79 O14         6.1790    5.5460    1.4350 o         1 MOL     -0.545867
     80 C27         7.5810    4.8670   -0.8540 c3        1 MOL      0.024967
     81 C28         8.3370    4.2850   -2.0830 c3        1 MOL     -0.091188
     82 C29         9.0650    5.3100   -2.9500 c         1 MOL      0.628331
     83 N8          9.8620    4.7830   -3.8580 n         1 MOL     -0.791852
     84 O15         8.9650    6.5290   -2.8540 o         1 MOL     -0.568638
     85 H33         6.4760    1.9880   -1.0970 hn        1 MOL      0.036761
     86 H34         5.7470    4.0100   -1.0270 h1        1 MOL      0.046054
     87 H35         8.2250    5.2000   -0.0340 hc        1 MOL     -0.018139
     88 H36         7.0630    5.7550   -1.2010 hc        1 MOL     -0.018139
     89 H37         7.7030    3.6790   -2.7340 hc        1 MOL      0.045192
     90 H38         9.0780    3.5850   -1.6990 hc        1 MOL      0.045192
     91 H39         9.9520    3.7790   -3.9870 hn        1 MOL      0.344492
     92 H40        10.4270    5.3890   -4.4350 hn        1 MOL      0.344492
     93 N9          4.9600    3.6770    1.5160 n         1 MOL     -0.495462
     94 C30         4.0770    3.9560    2.6720 c3        1 MOL      0.052199
     95 C31         2.5630    3.6580    2.5790 c         1 MOL      0.481595
     96 O16         1.8010    4.1300    3.4120 o         1 MOL     -0.558504
     97 C32         4.7490    3.3650    3.9430 c3        1 MOL      0.207015
     98 C33         4.9410    1.8630    3.9460 c3        1 MOL     -0.397009
     99 C34         6.0850    4.1150    4.2950 c3        1 MOL     -0.397009
    100 H41         4.9650    2.7230    1.1750 hn        1 MOL      0.269504
    101 H42         4.1170    5.0300    2.8250 h1        1 MOL      0.089243
    102 H43         4.0590    3.5420    4.7620 hc        1 MOL     -0.013192
    103 H44         3.9660    1.3970    3.8250 hc        1 MOL      0.104908
    104 H45         5.5050    1.5020    3.0890 hc        1 MOL      0.104908
    105 H46         5.4110    1.5800    4.8830 hc        1 MOL      0.104908
    106 H47         5.9430    5.1850    4.1660 hc        1 MOL      0.104908
    107 H48         6.3490    4.0040    5.3450 hc        1 MOL      0.104908
    108 H49         6.9210    3.8590    3.6360 hc        1 MOL      0.104908
    109 N10         2.1580    2.7860    1.5850 n         1 MOL     -0.406615
    110 C35         0.7960    2.3490    1.4380 c3        1 MOL      0.624276
    111 C36         0.0290    3.0530    0.3260 c         1 MOL      0.278645
    112 O17         0.6790    3.5610   -0.6420 o         1 MOL     -0.510247
    113 C37         0.6030    0.8530    1.3780 c3        1 MOL     -0.289386
    114 C38         1.3350    0.1830    2.5280 c         1 MOL      0.613776
    115 N11         0.8090    0.4320    3.6640 n         1 MOL     -0.802836
    116 O18         2.3510   -0.5350    2.3810 o         1 MOL     -0.570516
    117 H50         2.8900    2.6390    0.9080 hn        1 MOL      0.208028
    118 H51         0.2700    2.6540    2.3430 h1        1 MOL     -0.114893
    119 H52         1.1070    0.5690    0.4550 hc        1 MOL      0.108076
    120 H53        -0.4660    0.6770    1.4390 hc        1 MOL      0.108076
    121 H54         0.0470    1.0910    3.7470 hn        1 MOL      0.372572
    122 H55         1.2530    0.1040    4.5100 hn        1 MOL      0.372572
    123 N12        -1.2780    3.1760    0.3490 n         1 MOL     -0.368395
    124 C39        -2.1680    3.8640   -0.6190 c3        1 MOL      0.223230
    125 C40        -3.5800    4.0050   -0.1600 c         1 MOL      0.373589
    126 O19        -4.0330    3.2960    0.7510 o         1 MOL     -0.558777
    127 C41        -2.1990    3.0380   -1.9400 c3        1 MOL     -0.279998
    128 C42        -3.2340    1.9150   -1.8940 ca        1 MOL      0.099371
    129 C43        -3.2270    0.8410   -0.9530 ca        1 MOL     -0.126114
    130 C44        -4.1470    1.8870   -2.9570 ca        1 MOL     -0.126114
    131 C45        -4.0930   -0.2420   -1.1130 ca        1 MOL     -0.301470
    132 C46        -5.0150    0.8150   -3.1370 ca        1 MOL     -0.301470
    133 C47        -5.0120   -0.2160   -2.1970 ca        1 MOL      0.467797
    134 O20        -5.8200   -1.2670   -2.4360 oh        1 MOL     -0.592528
    135 H56        -1.7400    2.7980    1.1710 hn        1 MOL      0.251813
    136 H57        -1.6580    4.8140   -0.7680 h1        1 MOL      0.068906
    137 H58        -1.2470    2.6060   -2.2660 hc        1 MOL      0.104838
    138 H59        -2.4990    3.8190   -2.6490 hc        1 MOL      0.104838
    139 H60        -2.5480    0.8070   -0.1180 ha        1 MOL      0.128707
    140 H61        -4.1510    2.7460   -3.6080 ha        1 MOL      0.128707
    141 H62        -3.9410   -1.0770   -0.4340 ha        1 MOL      0.126996
    142 H63        -5.7450    0.9090   -3.9280 ha        1 MOL      0.126996
    143 H64        -5.4370   -1.9740   -1.9040 ho        1 MOL      0.363852
    144 N13        -4.3310    5.0270   -0.6440 n         1 MOL     -0.525606
    145 C48        -5.7650    5.0510   -0.3070 c3        1 MOL      0.375394
    146 C49        -6.5300    4.1920   -1.3330 c         1 MOL      0.291217
    147 O21        -6.5390    4.5870   -2.4900 o         1 MOL     -0.527764
    148 C50        -6.1960    6.5010   -0.1930 c3        1 MOL     -0.082459
    149 C51        -5.2880    7.3880    0.7240 c3        1 MOL     -0.114327
    150 C52        -5.5730    8.8430    0.7690 c         1 MOL      0.709101
    151 O22        -6.7670    9.1250    1.0890 o         1 MOL     -0.714404
    152 O23        -4.7970    9.7800    0.5030 o         1 MOL     -0.714404
    153 H65        -3.9430    5.6250   -1.3660 hn        1 MOL      0.350259
    154 H66        -5.9060    4.7200    0.7320 h1        1 MOL      0.068357
    155 H67        -7.2040    6.5470    0.2270 hc        1 MOL      0.017738
    156 H68        -6.1720    6.9150   -1.2070 hc        1 MOL      0.017738
    157 H69        -4.2560    7.3590    0.3640 hc        1 MOL     -0.012502
    158 H70        -5.4410    6.9790    1.7200 hc        1 MOL     -0.012502
    159 N14        -7.0350    2.9940   -1.0360 n         1 MOL     -0.232885
    160 C53        -7.0320    2.2220    0.2320 c3        1 MOL     -0.103388
    161 C54        -7.7310    2.9820    1.3270 c         1 MOL      0.399730
    162 O24        -8.6530    3.7700    1.0520 o         1 MOL     -0.488825
    163 C55        -7.5890    0.7810   -0.0010 c3        1 MOL      0.133324
    164 C56        -7.1870   -0.2210    1.0640 c3        1 MOL      0.137961
    165 C57        -7.5350   -1.6500    0.6560 c         1 MOL      0.548036
    166 O25        -6.5710   -2.4000    0.2830 o         1 MOL     -0.691277
    167 O26        -8.7550   -2.0440    0.6920 o         1 MOL     -0.691277
    168 H71        -7.7740    2.7050   -1.6620 hn        1 MOL      0.232509
    169 H72        -5.9800    2.2020    0.4740 h1        1 MOL      0.065397
    170 H73        -7.1930    0.4440   -0.9660 hc        1 MOL     -0.009514
    171 H74        -8.6770    0.8680   -0.0630 hc        1 MOL     -0.009514
    172 H75        -7.6930    0.0360    2.0020 hc        1 MOL     -0.041798
    173 H76        -6.1510   -0.1350    1.3820 hc        1 MOL     -0.041798
    174 N15        -7.3120    2.7640    2.6180 n         1 MOL     -0.227559
    175 C58        -7.6270    3.6350    3.7820 c3        1 MOL     -0.379550
    176 H77        -8.6990    3.6080    3.9770 h1        1 MOL      0.148434
    177 H78        -7.0890    3.2780    4.6610 h1        1 MOL      0.148434
    178 H79        -7.3260    4.6590    3.5620 h1        1 MOL      0.148434
    179 H80        -6.6730    1.9910    2.7590 hn        1 MOL      0.242423
    180 Ca1        -6.6480   -4.5490   -1.2200 Ca        1 MOL      1.711821
    181 O27        -6.7180   -7.2070   -0.7230 oh        1 MOL     -0.895146
    182 H81        -7.4970   -7.7710   -0.6990 ho        1 MOL      0.420478
    183 H82        -6.0380   -7.7610   -1.0960 ho        1 MOL      0.420478
    184 O28        -6.6240   -5.6290   -3.5920 oh        1 MOL     -0.895146
    185 H83        -6.1140   -5.1980   -4.2740 ho        1 MOL      0.420478
    186 H84        -7.2980   -6.1250   -4.0630 ho        1 MOL      0.420478
    187 O29        -9.1000   -4.3240   -0.4510 oh        1 MOL     -0.895146
    188 H85       -10.0150   -4.2100   -0.7170 ho        1 MOL      0.420478
    189 H86        -8.9210   -3.5830    0.1200 ho        1 MOL      0.420478
    190 O30        -7.9900   -2.8550   -2.8530 oh        1 MOL     -0.895146
    191 H87        -8.7260   -2.9880   -3.4490 ho        1 MOL      0.420478
    192 H88        -7.4690   -2.1640   -3.2650 ho        1 MOL      0.420478
@<TRIPOS>BOND
     1    1    2 1   
     2    1    4 1   
     3    1    5 1   
     4    1    6 1   
     5    2    3 2   
     6    2    7 1   
     7    7    8 1   
     8    7   15 1   
     9    8    9 1   
    10    8   11 1   
    11    8   16 1   
    12    9   10 2   
    13    9   19 1   
    14   11   12 1   
    15   11   17 1   
    16   11   18 1   
    17   12   13 1   
    18   12   14 1   
    19   19   20 1   
    20   19   27 1   
    21   20   21 1   
    22   20   23 1   
    23   20   28 1   
    24   21   22 2   
    25   21   38 1   
    26   23   24 1   
    27   23   25 1   
    28   23   29 1   
    29   24   26 1   
    30   24   30 1   
    31   24   31 1   
    32   25   32 1   
    33   25   33 1   
    34   25   34 1   
    35   26   35 1   
    36   26   36 1   
    37   26   37 1   
    38   38   39 1   
    39   38   46 1   
    40   39   40 1   
    41   39   42 1   
    42   39   47 1   
    43   40   41 2   
    44   40   50 1   
    45   42   43 1   
    46   42   48 1   
    47   42   49 1   
    48   43   44 1   
    49   43   45 1   
    50   50   51 1   
    51   50   54 1   
    52   51   52 1   
    53   51   55 1   
    54   51   56 1   
    55   52   53 2   
    56   52   57 1   
    57   57   58 1   
    58   57   65 1   
    59   58   59 1   
    60   58   61 1   
    61   58   66 1   
    62   59   60 2   
    63   59   69 1   
    64   61   62 1   
    65   61   67 1   
    66   61   68 1   
    67   62   63 1   
    68   62   64 1   
    69   69   70 1   
    70   69   73 1   
    71   70   71 1   
    72   70   74 1   
    73   70   75 1   
    74   71   72 2   
    75   71   76 1   
    76   76   77 1   
    77   76   85 1   
    78   77   78 1   
    79   77   80 1   
    80   77   86 1   
    81   78   79 2   
    82   78   93 1   
    83   80   81 1   
    84   80   87 1   
    85   80   88 1   
    86   81   82 1   
    87   81   89 1   
    88   81   90 1   
    89   82   83 1   
    90   82   84 2   
    91   83   91 1   
    92   83   92 1   
    93   93   94 1   
    94   93  100 1   
    95   94   95 1   
    96   94   97 1   
    97   94  101 1   
    98   95   96 2   
    99   95  109 1   
   100   97   98 1   
   101   97   99 1   
   102   97  102 1   
   103   98  103 1   
   104   98  104 1   
   105   98  105 1   
   106   99  106 1   
   107   99  107 1   
   108   99  108 1   
   109  109  110 1   
   110  109  117 1   
   111  110  111 1   
   112  110  113 1   
   113  110  118 1   
   114  111  112 2   
   115  111  123 1   
   116  113  114 1   
   117  113  119 1   
   118  113  120 1   
   119  114  115 1   
   120  114  116 2   
   121  115  121 1   
   122  115  122 1   
   123  123  124 1   
   124  123  135 1   
   125  124  125 1   
   126  124  127 1   
   127  124  136 1   
   128  125  126 2   
   129  125  144 1   
   130  127  128 1   
   131  127  137 1   
   132  127  138 1   
   133  128  129 ar  
   134  128  130 ar  
   135  129  131 ar  
   136  129  139 1   
   137  130  132 ar  
   138  130  140 1   
   139  131  133 ar  
   140  131  141 1   
   141  132  133 ar  
   142  132  142 1   
   143  133  134 1   
   144  134  143 1   
   145  144  145 1   
   146  144  153 1   
   147  145  146 1   
   148  145  148 1   
   149  145  154 1   
   150  146  147 2   
   151  146  159 1   
   152  148  149 1   
   153  148  155 1   
   154  148  156 1   
   155  149  150 1   
   156  149  157 1   
   157  149  158 1   
   158  150  151 1   
   159  150  152 1   
   160  159  160 1   
   161  159  168 1   
   162  160  161 1   
   163  160  163 1   
   164  160  169 1   
   165  161  162 2   
   166  161  174 1   
   167  163  164 1   
   168  163  170 1   
   169  163  171 1   
   170  164  165 1   
   171  164  172 1   
   172  164  173 1   
   173  165  166 1   
   174  165  167 1   
   175  174  175 1   
   176  174  179 1   
   177  175  176 1   
   178  175  177 1   
   179  175  178 1   
   180  181  182 1   
   181  181  183 1   
   182  184  185 1   
   183  184  186 1   
   184  187  188 1   
   185  187  189 1   
   186  190  191 1   
   187  190  192 1   
@<TRIPOS>SUBSTRUCTURE
     1 MOL         1 TEMP              0 ****  ****    0 ROOT
