@<TRIPOS>MOLECULE
MOL
  198   191     1     0     0
SMALL
resp


@<TRIPOS>ATOM
      1 C1         -4.0890   -2.8200    3.1100 c3        1 MOL     -0.386135
      2 C2         -3.2690   -3.5630    2.0390 c         1 MOL      0.593396
      3 O1         -2.3980   -2.9520    1.5180 o         1 MOL     -0.405002
      4 H1         -5.0690   -2.5670    2.7060 hc        1 MOL      0.094110
      5 H2         -4.2110   -3.4600    3.9850 hc        1 MOL      0.094110
      6 H3         -3.5690   -1.9060    3.3980 hc        1 MOL      0.094110
      7 N1         -3.5140   -4.8740    1.7350 n         1 MOL     -0.651622
      8 C3         -2.8700   -5.6760    0.6630 c3        1 MOL      0.032259
      9 C4         -1.3100   -5.5570    0.5000 c         1 MOL      0.622927
     10 O2         -0.7130   -5.4370   -0.5970 o         1 MOL     -0.563795
     11 C5         -3.5390   -5.4910   -0.7130 c3        1 MOL     -0.061689
     12 C6         -5.0760   -5.4440   -0.7110 c         1 MOL      0.648614
     13 O3         -5.6210   -6.5520   -0.7820 o         1 MOL     -0.713933
     14 O4         -5.7190   -4.4130   -1.0700 o         1 MOL     -0.713933
     15 H4         -4.2590   -5.3370    2.2330 hn        1 MOL      0.334181
     16 H5         -3.0060   -6.7240    0.9140 h1        1 MOL      0.062816
     17 H6         -3.2130   -6.2840   -1.3950 hc        1 MOL      0.050749
     18 H7         -3.2710   -4.5210   -1.1280 hc        1 MOL      0.050749
     19 N2         -0.6230   -5.4280    1.6570 n         1 MOL     -0.629987
     20 C7          0.7840   -5.1270    1.8050 c3        1 MOL      0.014955
     21 C8          1.7550   -6.3090    1.3290 c         1 MOL      0.687522
     22 O5          1.4270   -7.4350    1.3510 o         1 MOL     -0.578839
     23 C9          1.1310   -4.5380    3.1780 c3        1 MOL      0.078556
     24 C10         1.7250   -5.5840    4.1910 c3        1 MOL     -0.142009
     25 C11        -0.0480   -3.7780    3.8350 c3        1 MOL      0.105936
     26 C12         0.8760   -6.8460    4.5200 c3        1 MOL     -0.067963
     27 H8         -1.0740   -5.3520    2.5570 hn        1 MOL      0.358857
     28 H9          0.9650   -4.3170    1.0940 h1        1 MOL      0.115440
     29 H10         1.9460   -3.8160    3.0480 hc        1 MOL     -0.005347
     30 H11         1.9670   -5.1660    5.1670 hc        1 MOL      0.044152
     31 H12         2.6720   -5.9630    3.7940 hc        1 MOL      0.044152
     32 H13        -0.5730   -3.1720    3.0960 hc        1 MOL     -0.037498
     33 H14        -0.7900   -4.5140    4.1660 hc        1 MOL     -0.037498
     34 H15         0.2500   -3.0980    4.6240 hc        1 MOL     -0.037498
     35 H16         0.2590   -7.2230    3.7030 hc        1 MOL      0.005791
     36 H17         1.5840   -7.6390    4.7980 hc        1 MOL      0.005791
     37 H18         0.2070   -6.5630    5.3380 hc        1 MOL      0.005791
     38 N3          2.9450   -6.0140    0.8390 n         1 MOL     -0.491051
     39 C13         3.6490   -4.7080    0.8050 c3        1 MOL     -0.120095
     40 C14         3.3370   -3.7920   -0.3850 c         1 MOL      0.372972
     41 O6          3.5340   -2.5850   -0.2630 o         1 MOL     -0.523965
     42 C15         5.1610   -5.0500    0.8450 c3        1 MOL      0.053899
     43 C16         5.6770   -6.1120   -0.1530 c         1 MOL      0.685760
     44 O7          6.8880   -6.1530   -0.2320 o         1 MOL     -0.692924
     45 O8          4.8990   -6.9640   -0.7210 o         1 MOL     -0.692924
     46 H19         3.2940   -6.7950    0.3030 hn        1 MOL      0.250054
     47 H20         3.5210   -4.2160    1.7730 h1        1 MOL      0.089140
     48 H21         5.3930   -5.3710    1.8690 hc        1 MOL     -0.023638
     49 H22         5.8190   -4.1970    0.6890 hc        1 MOL     -0.023638
     50 N4          2.8160   -4.3310   -1.5060 n         1 MOL     -0.092501
     51 C17         2.6690   -3.6710   -2.7740 c3        1 MOL     -0.341460
     52 C18         4.0970   -3.2120   -3.0770 c         1 MOL      0.537107
     53 O9          4.9550   -4.0700   -3.3370 o         1 MOL     -0.562831
     54 H23         2.7700   -5.3390   -1.5210 hn        1 MOL      0.248603
     55 H24         1.9860   -2.8380   -2.6610 h1        1 MOL      0.144065
     56 H25         2.3510   -4.3450   -3.5720 h1        1 MOL      0.144065
     57 N5          4.4770   -1.9290   -3.0200 n         1 MOL     -0.395026
     58 C19         5.7890   -1.3660   -3.5880 c3        1 MOL      0.124955
     59 C20         6.9140   -1.3190   -2.5060 c         1 MOL      0.346742
     60 O10         8.0600   -1.0930   -2.8170 o         1 MOL     -0.513647
     61 C21         5.5650   -0.0390   -4.2770 c3        1 MOL     -0.381505
     62 C22         4.4120    0.7530   -3.5300 c         1 MOL      0.710933
     63 O11         3.2490    0.5600   -3.9640 o         1 MOL     -0.689139
     64 O12         4.6000    1.3320   -2.4080 o         1 MOL     -0.689139
     65 H26         3.7610   -1.2630   -2.7600 hn        1 MOL      0.310896
     66 H27         6.1570   -2.0640   -4.3460 h1        1 MOL      0.095295
     67 H28         5.2140   -0.2470   -5.2860 hc        1 MOL      0.077029
     68 H29         6.4330    0.6120   -4.2450 hc        1 MOL      0.077029
     69 N6          6.5630   -1.4450   -1.2100 n         1 MOL     -0.029753
     70 C23         7.5330   -1.2200   -0.1290 c3        1 MOL     -0.405051
     71 C24         7.8810    0.1970    0.1190 c         1 MOL      0.569283
     72 O13         8.7170    0.6460    0.9620 o         1 MOL     -0.631611
     73 H30         5.5960   -1.5800   -0.9570 hn        1 MOL      0.211340
     74 H31         8.4940   -1.7320   -0.2610 h1        1 MOL      0.153705
     75 H32         7.0160   -1.6560    0.7180 h1        1 MOL      0.153705
     76 N7          7.1440    1.0850   -0.5190 n         1 MOL      0.011597
     77 C25         7.1120    2.5600   -0.4630 c3        1 MOL     -0.066542
     78 C26         6.9050    3.1260    0.9270 c         1 MOL      0.645458
     79 O14         7.3220    4.2370    1.1890 o         1 MOL     -0.539950
     80 C27         8.3190    3.0400   -1.2920 c3        1 MOL     -0.038478
     81 C28         8.2850    2.5310   -2.7150 c3        1 MOL      0.157852
     82 C29         9.0970    3.3460   -3.7040 c         1 MOL      0.520818
     83 N8          9.3050    2.9060   -4.8670 n         1 MOL     -0.706904
     84 O15         9.5300    4.4680   -3.3410 o         1 MOL     -0.583222
     85 H33         6.4330    0.6930   -1.1320 hn        1 MOL     -0.009182
     86 H34         6.2110    2.9600   -0.9260 h1        1 MOL      0.130179
     87 H35         9.3190    2.8090   -0.9300 hc        1 MOL      0.004784
     88 H36         8.2140    4.1190   -1.3120 hc        1 MOL      0.004784
     89 H37         7.2370    2.5160   -3.0420 hc        1 MOL     -0.027707
     90 H38         8.5130    1.4680   -2.6420 hc        1 MOL     -0.027707
     91 H39         9.1300    1.9690   -5.2110 hn        1 MOL      0.331335
     92 H40         9.8360    3.4970   -5.4870 hn        1 MOL      0.331335
     93 N9          6.1610    2.3830    1.7550 n         1 MOL     -0.564913
     94 C30         5.7450    2.8840    3.1130 c3        1 MOL     -0.068896
     95 C31         4.2120    3.1880    3.2660 c         1 MOL      0.550972
     96 O16         3.8650    4.0430    4.1020 o         1 MOL     -0.592669
     97 C32         6.3300    2.0420    4.2590 c3        1 MOL      0.146487
     98 C33         6.0680    0.5340    4.1880 c3        1 MOL     -0.224371
     99 C34         7.8600    2.2520    4.4580 c3        1 MOL     -0.224371
    100 H41         5.8550    1.4470    1.5470 hn        1 MOL      0.297907
    101 H42         6.2430    3.8530    3.2130 h1        1 MOL      0.125298
    102 H43         5.8900    2.3150    5.2170 hc        1 MOL     -0.016667
    103 H44         6.6090    0.0010    4.9740 hc        1 MOL      0.057369
    104 H45         5.0230    0.2820    4.3460 hc        1 MOL      0.057369
    105 H46         6.3620    0.1080    3.2260 hc        1 MOL      0.057369
    106 H47         8.3870    1.8190    3.6040 hc        1 MOL      0.057369
    107 H48         8.1250    3.3040    4.5880 hc        1 MOL      0.057369
    108 H49         8.2340    1.7090    5.3140 hc        1 MOL      0.057369
    109 N10         3.3830    2.5940    2.4520 n         1 MOL     -0.389831
    110 C35         1.8550    2.6690    2.5710 c3        1 MOL      0.219038
    111 C36         1.2240    3.1250    1.2260 c         1 MOL      0.500759
    112 O17         1.8900    3.3250    0.1730 o         1 MOL     -0.502936
    113 C37         1.4780    1.1930    2.9700 c3        1 MOL     -0.407993
    114 C38        -0.0390    1.0770    3.3100 c         1 MOL      0.806828
    115 N11        -0.6160    1.8360    4.2620 n         1 MOL     -0.916902
    116 O18        -0.6740    0.3290    2.6360 o         1 MOL     -0.591998
    117 H50         3.8030    2.0630    1.7050 hn        1 MOL      0.261780
    118 H51         1.5630    3.4080    3.3180 h1        1 MOL      0.029543
    119 H52         2.0270    0.8650    3.8630 hc        1 MOL      0.123538
    120 H53         1.7330    0.5220    2.1650 hc        1 MOL      0.123538
    121 H54        -0.0360    2.4170    4.8470 hn        1 MOL      0.395593
    122 H55        -1.6190    1.8320    4.3170 hn        1 MOL      0.395593
    123 N12        -0.0680    3.3800    1.2600 n         1 MOL     -0.452025
    124 C39        -0.9330    3.7040    0.1120 c3        1 MOL      0.120432
    125 C40        -2.1710    4.4940    0.5700 c         1 MOL      0.528528
    126 O19        -2.5900    4.2720    1.6520 o         1 MOL     -0.549589
    127 C41        -1.3300    2.2960   -0.4470 c3        1 MOL     -0.147821
    128 C42        -2.1890    2.4610   -1.6410 ca        1 MOL      0.018154
    129 C43        -3.2620    1.6080   -1.7130 ca        1 MOL     -0.129414
    130 C44        -1.8450    3.3220   -2.6780 ca        1 MOL     -0.129414
    131 C45        -4.1650    1.7270   -2.7960 ca        1 MOL     -0.211820
    132 C46        -2.6400    3.3710   -3.8400 ca        1 MOL     -0.211820
    133 C47        -3.7970    2.5590   -3.9600 ca        1 MOL      0.261895
    134 O20        -4.5050    2.5680   -5.1050 oh        1 MOL     -0.502146
    135 H56        -0.5770    3.2050    2.1190 hn        1 MOL      0.220125
    136 H57        -0.3570    4.2980   -0.6110 h1        1 MOL      0.065577
    137 H58        -1.8880    1.7360    0.3090 hc        1 MOL      0.123675
    138 H59        -0.5040    1.5990   -0.6070 hc        1 MOL      0.123675
    139 H60        -3.5940    0.9830   -0.8840 ha        1 MOL      0.135355
    140 H61        -0.8950    3.8480   -2.6600 ha        1 MOL      0.135355
    141 H62        -5.1110    1.2090   -2.8900 ha        1 MOL      0.141794
    142 H63        -2.2410    3.8980   -4.6920 ha        1 MOL      0.141794
    143 H64        -5.4030    2.2380   -5.0300 ho        1 MOL      0.368015
    144 N13        -2.7630    5.3000   -0.2930 n         1 MOL     -0.424739
    145 C48        -4.0030    6.0610   -0.0800 c3        1 MOL      0.180588
    146 C49        -5.1300    5.7210   -0.9930 c         1 MOL      0.486614
    147 O21        -5.2530    6.2630   -2.0700 o         1 MOL     -0.560333
    148 C50        -3.7210    7.6100   -0.2240 c3        1 MOL     -0.002717
    149 C51        -2.8400    8.2240    0.8650 c3        1 MOL     -0.248053
    150 C52        -2.4190    9.5830    0.4490 c         1 MOL      0.778815
    151 O22        -1.5070    9.7170   -0.3730 o         1 MOL     -0.726075
    152 O23        -2.9620   10.5870    0.9180 o         1 MOL     -0.726075
    153 H65        -2.3830    5.4120   -1.2200 hn        1 MOL      0.278365
    154 H66        -4.3770    6.0230    0.9440 h1        1 MOL      0.083518
    155 H67        -4.6290    8.2020   -0.1290 hc        1 MOL      0.022955
    156 H68        -3.2790    7.8990   -1.1690 hc        1 MOL      0.022955
    157 H69        -1.9730    7.5900    1.0220 hc        1 MOL      0.015886
    158 H70        -3.3950    8.2640    1.8100 hc        1 MOL      0.015886
    159 N14        -5.8870    4.6910   -0.6920 n         1 MOL     -0.427593
    160 C53        -5.6940    3.6900    0.4260 c3        1 MOL     -0.207759
    161 C54        -6.0610    4.2180    1.8510 c         1 MOL      0.548128
    162 O24        -6.9640    5.0790    1.9220 o         1 MOL     -0.540820
    163 C55        -6.4700    2.4250    0.0810 c3        1 MOL     -0.097454
    164 C56        -6.2500    1.0970    0.8880 c3        1 MOL     -0.300369
    165 C57        -6.7910   -0.1150    0.1450 c         1 MOL      0.803690
    166 O25        -6.0250   -0.9260   -0.4160 o         1 MOL     -0.749726
    167 O26        -8.0560   -0.3540    0.1780 o         1 MOL     -0.749726
    168 H71        -6.6790    4.4610   -1.2760 hn        1 MOL      0.306142
    169 H72        -4.6290    3.4590    0.4990 h1        1 MOL      0.107710
    170 H73        -6.3300    2.1490   -0.9630 hc        1 MOL      0.075427
    171 H74        -7.5350    2.6330    0.1630 hc        1 MOL      0.075427
    172 H75        -6.6970    1.1300    1.8730 hc        1 MOL      0.075131
    173 H76        -5.1860    0.9290    1.0790 hc        1 MOL      0.075131
    174 N15        -5.3250    3.7160    2.8860 n         1 MOL     -0.274855
    175 C58        -5.3270    4.0710    4.3760 c3        1 MOL     -0.172436
    176 H77        -4.3260    3.9340    4.7840 h1        1 MOL      0.092722
    177 H78        -5.6290    5.1110    4.5020 h1        1 MOL      0.092722
    178 H79        -6.0260    3.4220    4.9050 h1        1 MOL      0.092722
    179 H80        -4.6120    3.0930    2.5420 hn        1 MOL      0.254072
    180 Ca1        -7.6440   -2.6530   -1.2910 Ca        1 MOL      1.667102
    181 O27        -8.9030   -0.8130   -2.8450 oh        1 MOL     -0.786507
    182 O28        -8.6810   -4.0430   -3.6280 oh        1 MOL     -0.786507
    183 H81        -8.9060    0.1440   -2.9150 ho        1 MOL      0.383237
    184 H82        -8.6670   -4.9990   -3.7160 ho        1 MOL      0.383237
    185 H83        -9.0400   -1.1210   -3.7370 ho        1 MOL      0.383237
    186 H84        -8.9970   -3.7280   -4.4780 ho        1 MOL      0.383237
    187 O29        -7.9000   -3.3630    1.3390 oh        1 MOL     -0.786507
    188 H85        -8.1110   -4.2450    1.6410 ho        1 MOL      0.383237
    189 H86        -7.4260   -2.9660    2.0680 ho        1 MOL      0.383237
    190 O30        -8.5590   -5.3140   -1.0340 oh        1 MOL     -0.786507
    191 H87        -7.9180   -5.9790   -0.7600 ho        1 MOL      0.383237
    192 H88        -9.4020   -5.7700   -0.9820 ho        1 MOL      0.383237
    193 O31        -6.0800   -2.0780   -3.4290 oh        1 MOL     -0.786507
    194 H89        -5.1820   -1.8630   -3.1820 ho        1 MOL      0.383237
    195 H90        -5.9850   -2.7610   -4.0960 ho        1 MOL      0.383237
    196 O32       -10.1580   -2.6420   -0.7430 oh        1 MOL     -0.786507
    197 H91       -10.4120   -1.9240   -0.1620 ho        1 MOL      0.383237
    198 H92       -10.8230   -3.3100   -0.6010 ho        1 MOL      0.383237
@<TRIPOS>BOND
     1    1    2 1   
     2    1    4 1   
     3    1    5 1   
     4    1    6 1   
     5    2    3 2   
     6    2    7 1   
     7    7    8 1   
     8    7   15 1   
     9    8    9 1   
    10    8   11 1   
    11    8   16 1   
    12    9   10 2   
    13    9   19 1   
    14   11   12 1   
    15   11   17 1   
    16   11   18 1   
    17   12   13 1   
    18   12   14 1   
    19   19   20 1   
    20   19   27 1   
    21   20   21 1   
    22   20   23 1   
    23   20   28 1   
    24   21   22 2   
    25   21   38 1   
    26   23   24 1   
    27   23   25 1   
    28   23   29 1   
    29   24   26 1   
    30   24   30 1   
    31   24   31 1   
    32   25   32 1   
    33   25   33 1   
    34   25   34 1   
    35   26   35 1   
    36   26   36 1   
    37   26   37 1   
    38   38   39 1   
    39   38   46 1   
    40   39   40 1   
    41   39   42 1   
    42   39   47 1   
    43   40   41 2   
    44   40   50 1   
    45   42   43 1   
    46   42   48 1   
    47   42   49 1   
    48   43   44 1   
    49   43   45 1   
    50   50   51 1   
    51   50   54 1   
    52   51   52 1   
    53   51   55 1   
    54   51   56 1   
    55   52   53 2   
    56   52   57 1   
    57   57   58 1   
    58   57   65 1   
    59   58   59 1   
    60   58   61 1   
    61   58   66 1   
    62   59   60 2   
    63   59   69 1   
    64   61   62 1   
    65   61   67 1   
    66   61   68 1   
    67   62   63 1   
    68   62   64 1   
    69   69   70 1   
    70   69   73 1   
    71   70   71 1   
    72   70   74 1   
    73   70   75 1   
    74   71   72 2   
    75   71   76 1   
    76   76   77 1   
    77   76   85 1   
    78   77   78 1   
    79   77   80 1   
    80   77   86 1   
    81   78   79 2   
    82   78   93 1   
    83   80   81 1   
    84   80   87 1   
    85   80   88 1   
    86   81   82 1   
    87   81   89 1   
    88   81   90 1   
    89   82   83 1   
    90   82   84 2   
    91   83   91 1   
    92   83   92 1   
    93   93   94 1   
    94   93  100 1   
    95   94   95 1   
    96   94   97 1   
    97   94  101 1   
    98   95   96 2   
    99   95  109 1   
   100   97   98 1   
   101   97   99 1   
   102   97  102 1   
   103   98  103 1   
   104   98  104 1   
   105   98  105 1   
   106   99  106 1   
   107   99  107 1   
   108   99  108 1   
   109  109  110 1   
   110  109  117 1   
   111  110  111 1   
   112  110  113 1   
   113  110  118 1   
   114  111  112 2   
   115  111  123 1   
   116  113  114 1   
   117  113  119 1   
   118  113  120 1   
   119  114  115 1   
   120  114  116 2   
   121  115  121 1   
   122  115  122 1   
   123  123  124 1   
   124  123  135 1   
   125  124  125 1   
   126  124  127 1   
   127  124  136 1   
   128  125  126 2   
   129  125  144 1   
   130  127  128 1   
   131  127  137 1   
   132  127  138 1   
   133  128  129 ar  
   134  128  130 ar  
   135  129  131 ar  
   136  129  139 1   
   137  130  132 ar  
   138  130  140 1   
   139  131  133 ar  
   140  131  141 1   
   141  132  133 ar  
   142  132  142 1   
   143  133  134 1   
   144  134  143 1   
   145  144  145 1   
   146  144  153 1   
   147  145  146 1   
   148  145  148 1   
   149  145  154 1   
   150  146  147 2   
   151  146  159 1   
   152  148  149 1   
   153  148  155 1   
   154  148  156 1   
   155  149  150 1   
   156  149  157 1   
   157  149  158 1   
   158  150  151 1   
   159  150  152 1   
   160  159  160 1   
   161  159  168 1   
   162  160  161 1   
   163  160  163 1   
   164  160  169 1   
   165  161  162 2   
   166  161  174 1   
   167  163  164 1   
   168  163  170 1   
   169  163  171 1   
   170  164  165 1   
   171  164  172 1   
   172  164  173 1   
   173  165  166 1   
   174  165  167 1   
   175  174  175 1   
   176  174  179 1   
   177  175  176 1   
   178  175  177 1   
   179  175  178 1   
   180  181  183 1   
   181  181  185 1   
   182  182  184 1   
   183  182  186 1   
   184  187  188 1   
   185  187  189 1   
   186  190  191 1   
   187  190  192 1   
   188  193  194 1   
   189  193  195 1   
   190  196  197 1   
   191  196  198 1   
@<TRIPOS>SUBSTRUCTURE
     1 MOL         1 TEMP              0 ****  ****    0 ROOT
