@<TRIPOS>MOLECULE
MOL
  195   189     1     0     0
SMALL
resp


@<TRIPOS>ATOM
      1 C1         -3.2420   -4.5190    2.5910 c3        1 MOL     -0.353658
      2 C2         -2.0940   -4.0590    1.5880 c         1 MOL      0.571699
      3 O1         -1.8110   -2.9170    1.5080 o         1 MOL     -0.414114
      4 H1         -4.2150   -4.2700    2.1670 hc        1 MOL      0.081222
      5 H2         -3.1800   -5.5960    2.7470 hc        1 MOL      0.081222
      6 H3         -3.1200   -4.0050    3.5450 hc        1 MOL      0.081222
      7 N1         -1.5510   -5.0030    0.8040 n         1 MOL     -0.591814
      8 C3         -0.5770   -4.7430   -0.2410 c3        1 MOL      0.019480
      9 C4          0.6700   -3.9900    0.2970 c         1 MOL      0.525230
     10 O2          1.3360   -3.1880   -0.3790 o         1 MOL     -0.562499
     11 C5         -1.1660   -4.1890   -1.5170 c3        1 MOL     -0.154505
     12 C6         -2.4760   -4.7540   -1.9220 c         1 MOL      0.668838
     13 O3         -3.5270   -4.1530   -1.6460 o         1 MOL     -0.694960
     14 O4         -2.4540   -5.8030   -2.6260 o         1 MOL     -0.694960
     15 H4         -1.9040   -5.9470    0.8610 hn        1 MOL      0.345049
     16 H5         -0.2130   -5.7310   -0.5040 h1        1 MOL      0.100049
     17 H6         -0.4420   -4.3460   -2.3180 hc        1 MOL      0.070278
     18 H7         -1.3020   -3.1130   -1.4370 hc        1 MOL      0.070278
     19 N2          1.1330   -4.3460    1.4720 n         1 MOL     -0.385883
     20 C7          2.3170   -3.6750    2.1100 c3        1 MOL     -0.102684
     21 C8          3.3800   -4.7520    2.5000 c         1 MOL      0.425722
     22 O5          3.1100   -5.9160    2.5370 o         1 MOL     -0.543484
     23 C9          1.9790   -2.9980    3.5110 c3        1 MOL     -0.025435
     24 C10         0.9970   -3.9180    4.3640 c3        1 MOL      0.087374
     25 C11         1.2950   -1.6610    3.2600 c3        1 MOL     -0.075400
     26 C12         0.8380   -3.4340    5.7570 c3        1 MOL     -0.122019
     27 H8          0.6680   -5.1130    1.9400 hn        1 MOL      0.253088
     28 H9          2.6680   -2.8790    1.4450 h1        1 MOL      0.178824
     29 H10         2.8260   -2.8510    4.1750 hc        1 MOL      0.094832
     30 H11         1.2540   -4.9760    4.3560 hc        1 MOL      0.006592
     31 H12         0.0060   -3.8860    3.9000 hc        1 MOL      0.006592
     32 H13         0.8240   -1.2160    4.1350 hc        1 MOL      0.033287
     33 H14         2.0740   -0.9880    2.9110 hc        1 MOL      0.033287
     34 H15         0.6000   -1.6880    2.4200 hc        1 MOL      0.033287
     35 H16         0.2260   -4.1420    6.3160 hc        1 MOL      0.021738
     36 H17         1.8190   -3.3600    6.2270 hc        1 MOL      0.021738
     37 H18         0.3870   -2.4460    5.8600 hc        1 MOL      0.021738
     38 N3          4.6430   -4.4250    2.6930 n         1 MOL     -0.259137
     39 C13         5.3680   -3.1700    2.4120 c3        1 MOL     -0.080833
     40 C14         5.3770   -2.7720    0.9390 c         1 MOL      0.587401
     41 O6          5.4010   -1.5810    0.5770 o         1 MOL     -0.560649
     42 C15         6.8280   -3.3130    2.7490 c3        1 MOL     -0.295100
     43 C16         6.9590   -3.9490    4.1280 c         1 MOL      0.710351
     44 O7          7.0010   -5.1740    4.2730 o         1 MOL     -0.703068
     45 O8          6.9390   -3.2590    5.1820 o         1 MOL     -0.703068
     46 H19         5.1580   -5.2880    2.6410 hn        1 MOL      0.233009
     47 H20         4.8670   -2.3490    2.9370 h1        1 MOL      0.096157
     48 H21         7.3460   -2.3760    2.5750 hc        1 MOL      0.070796
     49 H22         7.1960   -3.9980    1.9830 hc        1 MOL      0.070796
     50 N4          5.2660   -3.8030    0.0590 n         1 MOL     -0.307242
     51 C17         5.3160   -3.6260   -1.3840 c3        1 MOL     -0.257946
     52 C18         6.5620   -2.8770   -1.9030 c         1 MOL      0.538550
     53 O9          7.7030   -3.1980   -1.6230 o         1 MOL     -0.573691
     54 H23         5.2650   -4.7540    0.3850 hn        1 MOL      0.286720
     55 H24         4.3870   -3.1860   -1.7450 h1        1 MOL      0.119996
     56 H25         5.3220   -4.5980   -1.8750 h1        1 MOL      0.119996
     57 N5          6.2920   -1.7300   -2.5270 n         1 MOL     -0.551152
     58 C19         7.4240   -0.9600   -3.0480 c3        1 MOL      0.264480
     59 C20         8.0260   -0.0480   -1.9820 c         1 MOL      0.274262
     60 O10         8.9020    0.7820   -2.2630 o         1 MOL     -0.511765
     61 C21         6.9540   -0.0810   -4.2030 c3        1 MOL     -0.359869
     62 C22         5.6820    0.7890   -3.9300 c         1 MOL      0.753445
     63 O11         5.1290    1.3640   -4.8490 o         1 MOL     -0.700506
     64 O12         5.1430    0.7980   -2.7910 o         1 MOL     -0.700506
     65 H26         5.3390   -1.4410   -2.6770 hn        1 MOL      0.342989
     66 H27         8.2210   -1.5520   -3.4950 h1        1 MOL      0.067412
     67 H28         6.6730   -0.7340   -5.0250 hc        1 MOL      0.066653
     68 H29         7.7710    0.5500   -4.5710 hc        1 MOL      0.066653
     69 N6          7.6660   -0.1600   -0.6700 n         1 MOL     -0.105028
     70 C23         8.1110    0.6730    0.4610 c3        1 MOL     -0.256860
     71 C24         7.5950    2.1730    0.2720 c         1 MOL      0.606606
     72 O13         7.9660    3.0800    1.0230 o         1 MOL     -0.581234
     73 H30         6.9630   -0.8660   -0.4870 hn        1 MOL      0.249441
     74 H31         9.2000    0.5620    0.4970 h1        1 MOL      0.121967
     75 H32         7.7170    0.2170    1.3720 h1        1 MOL      0.121967
     76 N7          6.6520    2.4040   -0.7130 n         1 MOL     -0.293491
     77 C25         5.9630    3.7280   -1.0320 c3        1 MOL      0.428442
     78 C26         5.0610    4.1740    0.0860 c         1 MOL      0.102064
     79 O14         4.7330    5.3870    0.1880 o         1 MOL     -0.493495
     80 C27         6.9830    4.7450   -1.6590 c3        1 MOL     -0.272771
     81 C28         7.3130    4.4020   -3.0840 c3        1 MOL     -0.086461
     82 C29         8.1450    5.4480   -3.7990 c         1 MOL      0.691276
     83 N8          8.4320    5.2240   -5.0120 n         1 MOL     -0.814947
     84 O15         8.7760    6.3150   -3.2310 o         1 MOL     -0.588006
     85 H33         6.4360    1.6580   -1.3580 hn        1 MOL      0.067423
     86 H34         5.2300    3.5150   -1.8050 h1        1 MOL      0.043447
     87 H35         7.9250    4.6250   -1.1270 hc        1 MOL      0.077713
     88 H36         6.5870    5.7630   -1.5770 hc        1 MOL      0.077713
     89 H37         6.3670    4.1880   -3.5710 hc        1 MOL      0.046594
     90 H38         7.8870    3.4840   -3.1580 hc        1 MOL      0.046594
     91 H39         7.9710    4.4440   -5.4600 hn        1 MOL      0.352985
     92 H40         9.1640    5.7090   -5.5040 hn        1 MOL      0.352985
     93 N9          4.6060    3.3570    1.0060 n         1 MOL      0.039346
     94 C30         3.8880    3.8150    2.2610 c3        1 MOL     -0.195285
     95 C31         2.3890    3.8020    2.0910 c         1 MOL      0.577451
     96 O16         1.7000    4.4490    2.9170 o         1 MOL     -0.539285
     97 C32         4.3070    2.9420    3.4900 c3        1 MOL      0.232228
     98 C33         4.1260    1.3840    3.2620 c3        1 MOL     -0.168526
     99 C34         5.7620    3.2570    3.8700 c3        1 MOL     -0.168526
    100 H41         4.5690    2.3930    0.7110 hn        1 MOL      0.128724
    101 H42         4.1450    4.8550    2.4450 h1        1 MOL      0.132287
    102 H43         3.6670    3.2280    4.3330 hc        1 MOL     -0.030584
    103 H44         4.9730    0.9970    2.6980 hc        1 MOL      0.033516
    104 H45         4.0670    0.8070    4.1820 hc        1 MOL      0.033516
    105 H46         3.1690    1.3120    2.7280 hc        1 MOL      0.033516
    106 H47         6.4070    2.9550    3.0500 hc        1 MOL      0.033516
    107 H48         5.9730    4.2970    4.1560 hc        1 MOL      0.033516
    108 H49         6.0000    2.5970    4.7010 hc        1 MOL      0.033516
    109 N10         1.8420    2.9960    1.1430 n         1 MOL     -0.499467
    110 C35         0.4920    2.5370    1.2020 c3        1 MOL      0.114460
    111 C36        -0.5270    3.5090    0.4530 c         1 MOL      0.553336
    112 O17        -0.1040    4.4830   -0.1680 o         1 MOL     -0.499918
    113 C37         0.5060    1.2780    0.3780 c3        1 MOL     -0.066152
    114 C38        -0.7240    0.3990    0.7420 c         1 MOL      0.484765
    115 N11        -0.9540   -0.5990   -0.0520 n         1 MOL     -0.459930
    116 O18        -1.3440    0.4380    1.7830 o         1 MOL     -0.548249
    117 H50         2.4970    2.4690    0.5810 hn        1 MOL      0.241170
    118 H51         0.1770    2.3460    2.2250 h1        1 MOL      0.056113
    119 H52         1.4210    0.7120    0.5320 hc        1 MOL      0.056149
    120 H53         0.4920    1.4380   -0.7010 hc        1 MOL      0.056149
    121 H54        -0.5030   -0.7410   -0.9380 hn        1 MOL      0.239895
    122 H55        -1.4170   -1.3860    0.3930 hn        1 MOL      0.239895
    123 N12        -1.8770    3.2210    0.4760 n         1 MOL     -0.547124
    124 C39        -2.9730    3.9070   -0.2090 c3        1 MOL      0.129602
    125 C40        -4.2950    3.5490    0.4140 c         1 MOL      0.619555
    126 O19        -4.4490    2.3710    0.7700 o         1 MOL     -0.582450
    127 C41        -2.9130    3.6740   -1.6800 c3        1 MOL     -0.142709
    128 C42        -2.7470    2.2870   -2.0440 ca        1 MOL      0.094415
    129 C43        -1.5530    1.8480   -2.6650 ca        1 MOL     -0.150195
    130 C44        -3.8300    1.4220   -2.0590 ca        1 MOL     -0.150195
    131 C45        -1.4160    0.5420   -3.1240 ca        1 MOL     -0.275009
    132 C46        -3.6820    0.0710   -2.4910 ca        1 MOL     -0.275009
    133 C47        -2.4750   -0.3550   -3.0080 ca        1 MOL      0.321981
    134 O20        -2.4040   -1.5920   -3.6440 oh        1 MOL     -0.515329
    135 H56        -2.1440    2.3870    0.9790 hn        1 MOL      0.276420
    136 H57        -2.9480    5.0020   -0.1240 h1        1 MOL      0.043529
    137 H58        -2.1510    4.2850   -2.1490 hc        1 MOL      0.064900
    138 H59        -3.7980    4.1740   -2.0850 hc        1 MOL      0.064900
    139 H60        -0.7050    2.5180   -2.7570 ha        1 MOL      0.145310
    140 H61        -4.7950    1.7560   -1.6970 ha        1 MOL      0.145310
    141 H62        -0.4470    0.2320   -3.4700 ha        1 MOL      0.153666
    142 H63        -4.5570   -0.5580   -2.4000 ha        1 MOL      0.153666
    143 H64        -1.5900   -1.8130   -4.1030 ho        1 MOL      0.388348
    144 N13        -5.2660    4.4290    0.3670 n         1 MOL     -0.646582
    145 C48        -6.6770    4.1990    0.6410 c3        1 MOL      0.271345
    146 C49        -7.3760    3.7640   -0.6940 c         1 MOL      0.529086
    147 O21        -7.4190    4.5970   -1.5920 o         1 MOL     -0.590574
    148 C50        -7.3590    5.3600    1.4070 c3        1 MOL     -0.074038
    149 C51        -6.5770    5.6000    2.7230 c3        1 MOL      0.046167
    150 C52        -7.5040    6.2820    3.7330 c         1 MOL      0.605925
    151 O22        -8.6180    5.7140    4.0780 o         1 MOL     -0.694212
    152 O23        -7.1380    7.3890    4.1890 o         1 MOL     -0.694212
    153 H65        -5.0530    5.3690    0.0610 hn        1 MOL      0.342590
    154 H66        -6.6790    3.3310    1.2950 h1        1 MOL     -0.007504
    155 H67        -8.3890    5.0310    1.5420 hc        1 MOL      0.022620
    156 H68        -7.1970    6.2730    0.8290 hc        1 MOL      0.022620
    157 H69        -5.6660    6.1870    2.5960 hc        1 MOL     -0.031901
    158 H70        -6.3590    4.6070    3.1150 hc        1 MOL     -0.031901
    159 N14        -7.8270    2.5410   -0.8870 n         1 MOL     -0.561156
    160 C53        -7.6060    1.3460   -0.0890 c3        1 MOL      0.156732
    161 C54        -8.3080    1.4040    1.2500 c         1 MOL      0.468007
    162 O24        -9.3730    2.0600    1.3580 o         1 MOL     -0.510785
    163 C55        -8.2450    0.1810   -0.8820 c3        1 MOL     -0.366423
    164 C56        -7.6140   -0.1490   -2.1980 c3        1 MOL      0.287083
    165 C57        -8.2140   -1.3460   -2.9340 c         1 MOL      0.655271
    166 O25        -7.9350   -2.5240   -2.4460 o         1 MOL     -0.695535
    167 O26        -8.9690   -1.1530   -3.9060 o         1 MOL     -0.695535
    168 H71        -8.2300    2.3930   -1.7980 hn        1 MOL      0.352936
    169 H72        -6.5270    1.2030   -0.0220 h1        1 MOL      0.116209
    170 H73        -9.2160    0.5420   -1.2230 hc        1 MOL      0.075395
    171 H74        -8.2520   -0.7240   -0.2790 hc        1 MOL      0.075395
    172 H75        -6.5750   -0.3480   -1.9120 hc        1 MOL     -0.080044
    173 H76        -7.5390    0.6670   -2.9190 hc        1 MOL     -0.080044
    174 N15        -7.7200    0.8050    2.2860 n         1 MOL     -0.248494
    175 C58        -8.4010    0.5650    3.5940 c3        1 MOL     -0.184607
    176 H77        -8.9070    1.4760    3.9130 h1        1 MOL      0.093217
    177 H78        -9.1340   -0.2360    3.4810 h1        1 MOL      0.093217
    178 H79        -7.6620    0.2790    4.3410 h1        1 MOL      0.093217
    179 H80        -6.7600    0.5070    2.1240 hn        1 MOL      0.247370
    180 Ca1        -6.0950   -4.1780   -1.6010 Ca        1 MOL      1.728758
    181 O27        -5.1700   -2.7040   -3.7290 oh        1 MOL     -0.954894
    182 H81        -5.2170   -3.0260   -4.6270 ho        1 MOL      0.443283
    183 H82        -4.2620   -2.4120   -3.6170 ho        1 MOL      0.443283
    184 O28        -4.9970   -2.2380   -0.1370 oh        1 MOL     -0.954894
    185 H83        -4.1320   -2.6450   -0.1690 ho        1 MOL      0.443283
    186 H84        -4.8210   -1.3070   -0.0960 ho        1 MOL      0.443283
    187 O29        -7.5380   -4.9610   -3.7050 oh        1 MOL     -0.954894
    188 H85        -7.9660   -4.1850   -4.0680 ho        1 MOL      0.443283
    189 H86        -8.2110   -5.6480   -3.7570 ho        1 MOL      0.443283
    190 O30        -7.7510   -3.2670    0.6450 oh        1 MOL     -0.954894
    191 H87        -7.0720   -3.0380    1.2810 ho        1 MOL      0.443283
    192 H88        -8.4440   -3.6620    1.1760 ho        1 MOL      0.443283
    193 O31        -4.9420   -6.3630   -2.9440 oh        1 MOL     -0.954894
    194 H89        -3.9900   -6.4400   -2.8370 ho        1 MOL      0.443283
    195 H90        -5.0900   -6.5110   -3.8780 ho        1 MOL      0.443283
@<TRIPOS>BOND
     1    1    2 1   
     2    1    4 1   
     3    1    5 1   
     4    1    6 1   
     5    2    3 2   
     6    2    7 1   
     7    7    8 1   
     8    7   15 1   
     9    8    9 1   
    10    8   11 1   
    11    8   16 1   
    12    9   10 2   
    13    9   19 1   
    14   11   12 1   
    15   11   17 1   
    16   11   18 1   
    17   12   13 1   
    18   12   14 1   
    19   19   20 1   
    20   19   27 1   
    21   20   21 1   
    22   20   23 1   
    23   20   28 1   
    24   21   22 2   
    25   21   38 1   
    26   23   24 1   
    27   23   25 1   
    28   23   29 1   
    29   24   26 1   
    30   24   30 1   
    31   24   31 1   
    32   25   32 1   
    33   25   33 1   
    34   25   34 1   
    35   26   35 1   
    36   26   36 1   
    37   26   37 1   
    38   38   39 1   
    39   38   46 1   
    40   39   40 1   
    41   39   42 1   
    42   39   47 1   
    43   40   41 2   
    44   40   50 1   
    45   42   43 1   
    46   42   48 1   
    47   42   49 1   
    48   43   44 1   
    49   43   45 1   
    50   50   51 1   
    51   50   54 1   
    52   51   52 1   
    53   51   55 1   
    54   51   56 1   
    55   52   53 2   
    56   52   57 1   
    57   57   58 1   
    58   57   65 1   
    59   58   59 1   
    60   58   61 1   
    61   58   66 1   
    62   59   60 2   
    63   59   69 1   
    64   61   62 1   
    65   61   67 1   
    66   61   68 1   
    67   62   63 1   
    68   62   64 1   
    69   69   70 1   
    70   69   73 1   
    71   70   71 1   
    72   70   74 1   
    73   70   75 1   
    74   71   72 2   
    75   71   76 1   
    76   76   77 1   
    77   76   85 1   
    78   77   78 1   
    79   77   80 1   
    80   77   86 1   
    81   78   79 2   
    82   78   93 1   
    83   80   81 1   
    84   80   87 1   
    85   80   88 1   
    86   81   82 1   
    87   81   89 1   
    88   81   90 1   
    89   82   83 1   
    90   82   84 2   
    91   83   91 1   
    92   83   92 1   
    93   93   94 1   
    94   93  100 1   
    95   94   95 1   
    96   94   97 1   
    97   94  101 1   
    98   95   96 2   
    99   95  109 1   
   100   97   98 1   
   101   97   99 1   
   102   97  102 1   
   103   98  103 1   
   104   98  104 1   
   105   98  105 1   
   106   99  106 1   
   107   99  107 1   
   108   99  108 1   
   109  109  110 1   
   110  109  117 1   
   111  110  111 1   
   112  110  113 1   
   113  110  118 1   
   114  111  112 2   
   115  111  123 1   
   116  113  114 1   
   117  113  119 1   
   118  113  120 1   
   119  114  115 1   
   120  114  116 2   
   121  115  121 1   
   122  115  122 1   
   123  123  124 1   
   124  123  135 1   
   125  124  125 1   
   126  124  127 1   
   127  124  136 1   
   128  125  126 2   
   129  125  144 1   
   130  127  128 1   
   131  127  137 1   
   132  127  138 1   
   133  128  129 ar  
   134  128  130 ar  
   135  129  131 ar  
   136  129  139 1   
   137  130  132 ar  
   138  130  140 1   
   139  131  133 ar  
   140  131  141 1   
   141  132  133 ar  
   142  132  142 1   
   143  133  134 1   
   144  134  143 1   
   145  144  145 1   
   146  144  153 1   
   147  145  146 1   
   148  145  148 1   
   149  145  154 1   
   150  146  147 2   
   151  146  159 1   
   152  148  149 1   
   153  148  155 1   
   154  148  156 1   
   155  149  150 1   
   156  149  157 1   
   157  149  158 1   
   158  150  151 1   
   159  150  152 1   
   160  159  160 1   
   161  159  168 1   
   162  160  161 1   
   163  160  163 1   
   164  160  169 1   
   165  161  162 2   
   166  161  174 1   
   167  163  164 1   
   168  163  170 1   
   169  163  171 1   
   170  164  165 1   
   171  164  172 1   
   172  164  173 1   
   173  165  166 1   
   174  165  167 1   
   175  174  175 1   
   176  174  179 1   
   177  175  176 1   
   178  175  177 1   
   179  175  178 1   
   180  181  182 1   
   181  181  183 1   
   182  184  185 1   
   183  184  186 1   
   184  187  188 1   
   185  187  189 1   
   186  190  191 1   
   187  190  192 1   
   188  193  194 1   
   189  193  195 1   
@<TRIPOS>SUBSTRUCTURE
     1 MOL         1 TEMP              0 ****  ****    0 ROOT
