@<TRIPOS>MOLECULE
MOL
  178   175     1     0     0
SMALL
resp


@<TRIPOS>ATOM
      1 C1          2.3940   -2.7730    4.3410 c3        1 MOL     -0.389694
      2 C2          3.8870   -2.4120    4.0440 c         1 MOL      0.657163
      3 O1          4.4290   -1.2980    4.2610 o         1 MOL     -0.616393
      4 H1          2.3040   -3.8500    4.4890 hc        1 MOL      0.096064
      5 H2          2.0670   -2.2550    5.2420 hc        1 MOL      0.096064
      6 H3          1.7720   -2.4690    3.5000 hc        1 MOL      0.096064
      7 N1          4.4790   -3.3310    3.3120 n         1 MOL     -0.589074
      8 C3          5.8200   -3.3570    2.7800 c3        1 MOL      0.338082
      9 C4          5.7660   -2.9890    1.2680 c         1 MOL      0.648228
     10 O2          4.8230   -3.3530    0.5830 o         1 MOL     -0.472035
     11 C5          6.4640   -4.7090    3.0340 c3        1 MOL     -0.487994
     12 C6          5.7520   -5.9160    2.4530 c         1 MOL      0.824154
     13 O3          4.8640   -6.6220    3.0020 o         1 MOL     -0.719154
     14 O4          5.9960   -6.1590    1.2400 o         1 MOL     -0.719154
     15 H4          3.8760   -4.0760    2.9890 hn        1 MOL      0.294704
     16 H5          6.3850   -2.5610    3.2680 h1        1 MOL      0.012714
     17 H6          6.5740   -4.8390    4.1060 hc        1 MOL      0.088607
     18 H7          7.4950   -4.7530    2.6770 hc        1 MOL      0.088607
     19 N2          6.8190   -2.3190    0.7420 n         1 MOL     -0.838261
     20 C7          6.9400   -2.0250   -0.6690 c3        1 MOL      0.585598
     21 C8          5.9060   -0.9500   -1.2220 c         1 MOL      0.395337
     22 O5          5.5020   -0.1160   -0.4330 o         1 MOL     -0.512864
     23 C9          8.4050   -1.7960   -1.0650 c3        1 MOL     -0.237207
     24 H8          7.6460   -2.1270    1.2870 hn        1 MOL      0.350842
     25 H9          6.6130   -2.9210   -1.1930 h1        1 MOL     -0.045397
     26 H10         8.5340   -1.7610   -2.1440 hc        1 MOL      0.045754
     27 H11         8.8470   -0.8790   -0.6640 hc        1 MOL      0.045754
     28 H12         9.0440   -2.5890   -0.6630 hc        1 MOL      0.045754
     29 N3          5.4290   -0.9340   -2.5000 n         1 MOL     -0.615386
     30 C10         4.2340   -0.1850   -2.7700 c3        1 MOL      0.049565
     31 C11         4.4820    1.2300   -3.3060 c         1 MOL      0.759100
     32 O6          5.6040    1.6360   -3.6180 o         1 MOL     -0.554224
     33 C12         3.3990   -0.9530   -3.7780 c3        1 MOL     -0.130005
     34 C13         3.4410   -2.4830   -3.5890 c         1 MOL      0.718053
     35 O7          3.5570   -3.2230   -4.6400 o         1 MOL     -0.706140
     36 O8          3.3320   -2.9560   -2.4120 o         1 MOL     -0.706140
     37 H13         5.8950   -1.4050   -3.2600 hn        1 MOL      0.359137
     38 H14         3.5730   -0.1400   -1.8960 h1        1 MOL      0.061896
     39 H15         3.8060   -0.5860   -4.7210 hc        1 MOL      0.006139
     40 H16         2.3650   -0.6030   -3.8060 hc        1 MOL      0.006139
     41 N4          3.3240    1.9440   -3.4880 n         1 MOL     -0.683628
     42 C14         3.2970    3.3690   -4.0250 c3        1 MOL      0.096230
     43 C15         3.5090    4.3950   -2.9000 c         1 MOL      0.639338
     44 O9          4.0200    3.9530   -1.8890 o         1 MOL     -0.489486
     45 H17         2.4420    1.5770   -3.1740 hn        1 MOL      0.378109
     46 H18         2.4050    3.6320   -4.6020 h1        1 MOL      0.026304
     47 H19         4.1680    3.5900   -4.6460 h1        1 MOL      0.026304
     48 N5          3.0810    5.6840   -3.0160 n         1 MOL     -0.658530
     49 C16         3.2620    6.6520   -1.9240 c3        1 MOL      0.063783
     50 C17         2.2850    6.3730   -0.7800 c         1 MOL      0.707119
     51 O10         1.2960    5.6960   -0.9590 o         1 MOL     -0.462070
     52 C18         3.1340    8.0850   -2.4500 c3        1 MOL     -0.460510
     53 C19         4.2490    8.4470   -3.4610 c         1 MOL      0.655968
     54 N6          5.4690    8.0630   -3.2170 n         1 MOL     -0.625495
     55 O11         4.0580    9.1030   -4.4950 o         1 MOL     -0.559623
     56 H20         2.6340    5.9930   -3.8730 hn        1 MOL      0.359631
     57 H21         4.2190    6.4400   -1.4460 h1        1 MOL      0.045687
     58 H22         3.1430    8.8330   -1.6570 hc        1 MOL      0.151563
     59 H23         2.1290    8.2040   -2.8670 hc        1 MOL      0.151563
     60 H24         5.7490    7.6770   -2.3250 hn        1 MOL      0.313206
     61 H25         6.2490    8.5300   -3.6450 hn        1 MOL      0.313206
     62 N7          2.5570    6.9070    0.4380 n         1 MOL     -0.626218
     63 C20         1.7840    6.7390    1.7090 c3        1 MOL     -0.008623
     64 C21         0.3050    7.2150    1.7640 c         1 MOL      0.465714
     65 O12        -0.2540    7.7810    0.8510 o         1 MOL     -0.486454
     66 H26         3.2170    7.6780    0.5280 hn        1 MOL      0.323998
     67 H27         2.3120    7.1490    2.5670 h1        1 MOL      0.090642
     68 H28         1.7160    5.6560    1.7780 h1        1 MOL      0.090642
     69 N8         -0.4290    6.5910    2.6660 n         1 MOL     -0.329552
     70 C22        -1.9320    6.4570    2.7700 c3        1 MOL      0.005000
     71 C23        -2.5770    5.0550    2.8140 c         1 MOL      0.694700
     72 O13        -3.5770    4.8090    2.1760 o         1 MOL     -0.591694
     73 C24        -2.6140    7.1830    3.9120 c3        1 MOL      0.344110
     74 C25        -2.4060    6.6200    5.3490 c3        1 MOL     -0.162794
     75 O14        -2.0460    8.4520    4.1360 oh        1 MOL     -0.597779
     76 H29         0.0710    5.9710    3.2950 hn        1 MOL      0.163178
     77 H30        -2.3600    6.9800    1.9120 h1        1 MOL      0.079760
     78 H31        -3.6590    7.2700    3.5920 h1        1 MOL      0.021465
     79 H32        -1.0980    8.3490    4.0190 ho        1 MOL      0.323728
     80 H33        -1.3750    6.2880    5.4730 hc        1 MOL      0.032308
     81 H34        -2.6320    7.3890    6.0820 hc        1 MOL      0.032308
     82 H35        -3.1570    5.8570    5.5620 hc        1 MOL      0.032308
     83 N9         -1.9830    4.0430    3.4870 n         1 MOL     -0.715943
     84 C26        -2.3780    2.5730    3.3200 c3        1 MOL      0.141176
     85 C27        -1.7060    1.8520    2.1340 c         1 MOL      0.514301
     86 O15        -0.5560    2.1690    1.7450 o         1 MOL     -0.531149
     87 C28        -2.0960    1.8430    4.7080 c3        1 MOL      0.047039
     88 C29        -2.4780    2.5970    5.9830 c3        1 MOL      0.120157
     89 C30        -2.8530    0.5540    4.6660 c3        1 MOL     -0.058188
     90 C31        -3.9990    2.7410    6.2450 c3        1 MOL     -0.200657
     91 H36        -1.2030    4.3400    4.0500 hn        1 MOL      0.351643
     92 H37        -3.4580    2.5280    3.1890 h1        1 MOL      0.083949
     93 H38        -1.0440    1.5730    4.8200 hc        1 MOL      0.020185
     94 H39        -2.0150    3.5910    5.9930 hc        1 MOL     -0.028450
     95 H40        -2.0600    2.0820    6.8410 hc        1 MOL     -0.028450
     96 H41        -3.9010    0.7160    4.4120 hc        1 MOL      0.010647
     97 H42        -2.3400   -0.1520    4.0170 hc        1 MOL      0.010647
     98 H43        -2.8470    0.0940    5.6470 hc        1 MOL      0.010647
     99 H44        -4.0910    3.5370    6.9830 hc        1 MOL      0.041321
    100 H45        -4.5460    3.0290    5.3550 hc        1 MOL      0.041321
    101 H46        -4.3140    1.7480    6.5790 hc        1 MOL      0.041321
    102 N10        -2.2890    0.8290    1.6530 n         1 MOL     -0.360692
    103 C32        -1.7690   -0.1350    0.6380 c3        1 MOL      0.144567
    104 C33        -2.7220   -0.4970   -0.5100 c         1 MOL      0.514831
    105 O16        -2.6830   -1.5190   -1.2460 o         1 MOL     -0.458619
    106 C34        -1.2330   -1.4010    1.3380 c3        1 MOL     -0.044581
    107 C35        -0.0710   -2.1240    0.6890 c         1 MOL      0.805582
    108 O17         0.3670   -1.7200   -0.3960 o         1 MOL     -0.728510
    109 O18         0.4740   -3.0980    1.2430 o         1 MOL     -0.728510
    110 H47        -3.2660    0.6510    1.8280 hn        1 MOL      0.207467
    111 H48        -1.0040    0.2720   -0.0240 h1        1 MOL      0.077696
    112 H49        -2.1040   -1.9790    1.6660 hc        1 MOL     -0.019865
    113 H50        -0.8820   -1.2010    2.3510 hc        1 MOL     -0.019865
    114 N11        -3.7090    0.4020   -0.6710 n         1 MOL     -0.574641
    115 C36        -4.9230    0.2470   -1.5230 c3        1 MOL      0.489296
    116 C37        -5.5820   -1.1430   -1.3290 c         1 MOL      0.219708
    117 O19        -6.0290   -1.4840   -0.2090 o         1 MOL     -0.524010
    118 C38        -5.9500    1.3990   -1.3010 c3        1 MOL     -0.274222
    119 C39        -7.0960    1.3790   -2.4000 ca        1 MOL      0.096867
    120 C40        -8.2840    0.6040   -2.2420 ca        1 MOL     -0.164477
    121 C41        -7.0120    2.3200   -3.4640 ca        1 MOL     -0.164477
    122 C42        -9.2560    0.6700   -3.2800 ca        1 MOL     -0.105474
    123 C43        -8.0480    2.4720   -4.3520 ca        1 MOL     -0.105474
    124 C44        -9.0990    1.6040   -4.3250 ca        1 MOL     -0.113344
    125 H51        -3.7250    1.1610   -0.0040 hn        1 MOL      0.243589
    126 H52        -4.6060    0.4240   -2.5530 h1        1 MOL     -0.073832
    127 H53        -5.4580    2.3620   -1.1960 hc        1 MOL      0.091760
    128 H54        -6.3780    1.2240   -0.3110 hc        1 MOL      0.091760
    129 H55        -8.4180   -0.1550   -1.4840 ha        1 MOL      0.128279
    130 H56        -6.1970    3.0270   -3.3620 ha        1 MOL      0.128279
    131 H57       -10.0150   -0.0840   -3.4070 ha        1 MOL      0.105131
    132 H58        -7.9860    3.2830   -5.0590 ha        1 MOL      0.105131
    133 H59        -9.8490    1.5610   -5.1000 ha        1 MOL      0.094766
    134 N12        -5.5590   -2.0320   -2.3700 n         1 MOL      0.043170
    135 C45        -6.3460   -3.2760   -2.2960 c3        1 MOL     -0.075227
    136 C46        -5.7860   -4.4240   -1.3700 c         1 MOL      0.330099
    137 O20        -6.4930   -5.3610   -0.9240 o         1 MOL     -0.530917
    138 C47        -6.2540   -3.7570   -3.7920 c3        1 MOL     -0.100839
    139 C48        -5.0880   -3.0760   -4.4990 c3        1 MOL     -0.128314
    140 C49        -4.9140   -1.8590   -3.6410 c3        1 MOL     -0.145084
    141 H60        -7.3790   -3.0000   -2.0660 h1        1 MOL      0.112824
    142 H61        -6.3060   -4.8430   -3.9230 hc        1 MOL      0.057510
    143 H62        -7.0910   -3.3820   -4.3690 hc        1 MOL      0.057510
    144 H63        -4.1290   -3.5870   -4.4650 hc        1 MOL      0.080643
    145 H64        -5.2700   -2.9100   -5.5580 hc        1 MOL      0.080643
    146 H65        -3.8700   -1.6290   -3.4440 h1        1 MOL      0.086581
    147 H66        -5.4430   -1.1210   -4.2540 h1        1 MOL      0.086581
    148 N13        -4.5320   -4.4210   -0.9540 n         1 MOL     -0.093988
    149 C50        -3.9460   -5.4210    0.0150 c3        1 MOL     -0.329458
    150 C51        -4.5680   -5.3970    1.3910 c         1 MOL      0.646812
    151 O21        -4.7220   -6.3670    2.1000 o         1 MOL     -0.572230
    152 C52        -2.3770   -5.3180    0.1050 c3        1 MOL      0.121251
    153 C53        -1.6060   -5.4340   -1.2340 c3        1 MOL     -0.114388
    154 C54        -0.0860   -5.1220   -1.1360 c         1 MOL      0.690336
    155 O22         0.7070   -5.8080   -0.4860 o         1 MOL     -0.730298
    156 O23         0.3880   -4.3000   -1.9230 o         1 MOL     -0.730298
    157 H67        -3.9350   -3.6260   -1.1460 hn        1 MOL      0.194475
    158 H68        -4.1030   -6.4110   -0.4190 h1        1 MOL      0.160160
    159 H69        -2.0620   -6.1250    0.7610 hc        1 MOL     -0.017513
    160 H70        -2.0540   -4.3770    0.5540 hc        1 MOL     -0.017513
    161 H71        -2.0370   -4.8890   -2.0760 hc        1 MOL      0.020408
    162 H72        -1.8280   -6.4590   -1.5310 hc        1 MOL      0.020408
    163 N14        -4.9430   -4.2140    1.8850 n         1 MOL     -0.282562
    164 C55        -5.4910   -4.0980    3.2920 c3        1 MOL     -0.345240
    165 H73        -6.1760   -3.2520    3.3460 h1        1 MOL      0.128506
    166 H74        -6.0250   -5.0120    3.5500 h1        1 MOL      0.128506
    167 H75        -4.6700   -3.9460    3.9920 h1        1 MOL      0.128506
    168 H76        -4.6570   -3.3420    1.4620 hn        1 MOL      0.272546
    169 Ca1         2.3780   -3.7490   -0.2240 Ca        1 MOL      1.757014
    170 O24         3.0720   -1.2390    0.7960 oh        1 MOL     -0.919579
    171 H77         4.0180   -1.1460    0.6500 ho        1 MOL      0.432778
    172 H78         2.7730   -0.3480    0.9680 ho        1 MOL      0.432778
    173 O25         4.3650   -5.7880   -0.7850 oh        1 MOL     -0.919579
    174 H79         4.8190   -5.9960    0.0410 ho        1 MOL      0.432778
    175 H80         4.7670   -6.3800   -1.4250 ho        1 MOL      0.432778
    176 O26         2.6830   -5.3190    2.1640 oh        1 MOL     -0.919579
    177 H81         3.4600   -5.6580    2.6110 ho        1 MOL      0.432778
    178 H82         1.9530   -5.7510    2.6120 ho        1 MOL      0.432778
@<TRIPOS>BOND
     1    1    2 1   
     2    1    4 1   
     3    1    5 1   
     4    1    6 1   
     5    2    3 2   
     6    2    7 1   
     7    7    8 1   
     8    7   15 1   
     9    8    9 1   
    10    8   11 1   
    11    8   16 1   
    12    9   10 2   
    13    9   19 1   
    14   11   12 1   
    15   11   17 1   
    16   11   18 1   
    17   12   13 1   
    18   12   14 1   
    19   19   20 1   
    20   19   24 1   
    21   20   21 1   
    22   20   23 1   
    23   20   25 1   
    24   21   22 2   
    25   21   29 1   
    26   23   26 1   
    27   23   27 1   
    28   23   28 1   
    29   29   30 1   
    30   29   37 1   
    31   30   31 1   
    32   30   33 1   
    33   30   38 1   
    34   31   32 2   
    35   31   41 1   
    36   33   34 1   
    37   33   39 1   
    38   33   40 1   
    39   34   35 1   
    40   34   36 1   
    41   41   42 1   
    42   41   45 1   
    43   42   43 1   
    44   42   46 1   
    45   42   47 1   
    46   43   44 2   
    47   43   48 1   
    48   48   49 1   
    49   48   56 1   
    50   49   50 1   
    51   49   52 1   
    52   49   57 1   
    53   50   51 2   
    54   50   62 1   
    55   52   53 1   
    56   52   58 1   
    57   52   59 1   
    58   53   54 1   
    59   53   55 2   
    60   54   60 1   
    61   54   61 1   
    62   62   63 1   
    63   62   66 1   
    64   63   64 1   
    65   63   67 1   
    66   63   68 1   
    67   64   65 2   
    68   64   69 1   
    69   69   70 1   
    70   69   76 1   
    71   70   71 1   
    72   70   73 1   
    73   70   77 1   
    74   71   72 2   
    75   71   83 1   
    76   73   74 1   
    77   73   75 1   
    78   73   78 1   
    79   74   80 1   
    80   74   81 1   
    81   74   82 1   
    82   75   79 1   
    83   83   84 1   
    84   83   91 1   
    85   84   85 1   
    86   84   87 1   
    87   84   92 1   
    88   85   86 2   
    89   85  102 1   
    90   87   88 1   
    91   87   89 1   
    92   87   93 1   
    93   88   90 1   
    94   88   94 1   
    95   88   95 1   
    96   89   96 1   
    97   89   97 1   
    98   89   98 1   
    99   90   99 1   
   100   90  100 1   
   101   90  101 1   
   102  102  103 1   
   103  102  110 1   
   104  103  104 1   
   105  103  106 1   
   106  103  111 1   
   107  104  105 2   
   108  104  114 1   
   109  106  107 1   
   110  106  112 1   
   111  106  113 1   
   112  107  108 1   
   113  107  109 1   
   114  114  115 1   
   115  114  125 1   
   116  115  116 1   
   117  115  118 1   
   118  115  126 1   
   119  116  117 2   
   120  116  134 1   
   121  118  119 1   
   122  118  127 1   
   123  118  128 1   
   124  119  120 ar  
   125  119  121 ar  
   126  120  122 ar  
   127  120  129 1   
   128  121  123 ar  
   129  121  130 1   
   130  122  124 ar  
   131  122  131 1   
   132  123  124 ar  
   133  123  132 1   
   134  124  133 1   
   135  134  135 1   
   136  134  140 1   
   137  135  136 1   
   138  135  138 1   
   139  135  141 1   
   140  136  137 2   
   141  136  148 1   
   142  138  139 1   
   143  138  142 1   
   144  138  143 1   
   145  139  140 1   
   146  139  144 1   
   147  139  145 1   
   148  140  146 1   
   149  140  147 1   
   150  148  149 1   
   151  148  157 1   
   152  149  150 1   
   153  149  152 1   
   154  149  158 1   
   155  150  151 2   
   156  150  163 1   
   157  152  153 1   
   158  152  159 1   
   159  152  160 1   
   160  153  154 1   
   161  153  161 1   
   162  153  162 1   
   163  154  155 1   
   164  154  156 1   
   165  163  164 1   
   166  163  168 1   
   167  164  165 1   
   168  164  166 1   
   169  164  167 1   
   170  170  171 1   
   171  170  172 1   
   172  173  174 1   
   173  173  175 1   
   174  176  177 1   
   175  176  178 1   
@<TRIPOS>SUBSTRUCTURE
     1 MOL         1 TEMP              0 ****  ****    0 ROOT
