@<TRIPOS>MOLECULE
MOL
  186   183     1     0     0
SMALL
resp


@<TRIPOS>ATOM
      1 C1         12.1020    4.7030   -3.0450 c3        1 MOL     -0.427203
      2 C2         11.5860    3.5810   -2.0830 c         1 MOL      0.861366
      3 O1         11.4240    2.4580   -2.4880 o         1 MOL     -0.599003
      4 H1         13.1910    4.6760   -3.0830 hc        1 MOL      0.096051
      5 H2         11.7000    4.5390   -4.0450 hc        1 MOL      0.096051
      6 H3         11.7770    5.6760   -2.6760 hc        1 MOL      0.096051
      7 N1         11.3530    4.0080   -0.8080 n         1 MOL     -0.668781
      8 C3         10.9260    3.1380    0.2510 c3        1 MOL     -0.764903
      9 C4          9.7050    2.2960   -0.0930 c         1 MOL      0.907512
     10 O2          8.6280    2.8700   -0.2230 o         1 MOL     -0.448047
     11 C5         10.9470    3.9740    1.5480 c3        1 MOL      0.146249
     12 C6         10.3090    5.3290    1.3010 c         1 MOL      0.642039
     13 O3          9.0770    5.3590    1.2820 o         1 MOL     -0.723736
     14 O4         11.0900    6.3000    1.0640 o         1 MOL     -0.723736
     15 H4         11.6730    4.9330   -0.5480 hn        1 MOL      0.470784
     16 H5         11.7400    2.4170    0.2900 h1        1 MOL      0.254514
     17 H6         11.9110    4.1180    2.0360 hc        1 MOL      0.044848
     18 H7         10.2960    3.4950    2.2730 hc        1 MOL      0.044848
     19 N2          9.7750    0.9140   -0.1260 n         1 MOL     -0.451318
     20 C7          8.7090   -0.0160   -0.5810 c3        1 MOL     -0.285932
     21 C8          7.5950   -0.3100    0.4720 c         1 MOL      0.751300
     22 O5          7.9170   -0.3920    1.6530 o         1 MOL     -0.565561
     23 C9          9.3390   -1.2450   -1.2590 c3        1 MOL     -0.002291
     24 C10         8.2690   -2.1280   -1.8740 c3        1 MOL      0.187057
     25 C11         8.8050   -3.2810   -2.7040 c3        1 MOL     -0.219529
     26 C12         9.8350   -4.1310   -1.9300 c3        1 MOL     -0.076063
     27 N3          9.1660   -4.9500   -0.8360 n4        1 MOL     -0.330169
     28 H8         10.7200    0.5540   -0.1220 hn        1 MOL      0.242722
     29 H9          8.3360    0.5240   -1.4510 h1        1 MOL      0.201322
     30 H10         9.8060   -1.9290   -0.5420 hc        1 MOL      0.043645
     31 H11        10.0880   -0.9420   -1.9790 hc        1 MOL      0.043645
     32 H12         7.5340   -1.5840   -2.4670 hc        1 MOL     -0.024344
     33 H13         7.7250   -2.4920   -1.0010 hc        1 MOL     -0.024344
     34 H14         9.1840   -2.7710   -3.5900 hc        1 MOL      0.102606
     35 H15         7.9230   -3.8990   -2.9020 hc        1 MOL      0.102606
     36 H16        10.6420   -3.5210   -1.5270 hx        1 MOL      0.117518
     37 H17        10.2490   -4.7620   -2.7120 hx        1 MOL      0.117518
     38 H18         9.8940   -5.3460   -0.2550 hn        1 MOL      0.302876
     39 H19         8.4830   -4.4130   -0.3270 hn        1 MOL      0.302876
     40 H20         8.6720   -5.7650   -1.1910 hn        1 MOL      0.302876
     41 N4          6.3390   -0.2810    0.0970 n         1 MOL     -0.566715
     42 C13         5.1540   -0.2570    0.9940 c3        1 MOL      0.183458
     43 C14         3.8810   -0.4390    0.1580 c         1 MOL      0.380248
     44 O6          3.8470   -0.2010   -1.0570 o         1 MOL     -0.506778
     45 C15         5.0610    1.0520    1.7820 c3        1 MOL      0.297973
     46 C16         5.6230    2.3220    1.0830 c         1 MOL      0.486369
     47 O7          5.3430    2.5340   -0.0870 o         1 MOL     -0.716486
     48 O8          6.4020    3.0260    1.7130 o         1 MOL     -0.716486
     49 H21         6.2100   -0.1050   -0.8870 hn        1 MOL      0.250562
     50 H22         5.4510   -1.0920    1.6310 h1        1 MOL      0.024962
     51 H23         5.6220    0.8950    2.6990 hc        1 MOL     -0.045680
     52 H24         4.0580    1.3000    2.1430 hc        1 MOL     -0.045680
     53 N5          2.7420   -0.7160    0.7520 n         1 MOL     -0.357805
     54 C17         2.5640   -1.2630    2.0920 c3        1 MOL     -0.064729
     55 C18         2.8280   -2.7650    2.3240 c         1 MOL      0.642132
     56 O9          3.7350   -3.2690    1.7700 o         1 MOL     -0.540301
     57 H25         1.9280   -0.7770    0.1600 hn        1 MOL      0.278219
     58 H26         1.5600   -1.0770    2.4700 h1        1 MOL      0.049501
     59 H27         3.2330   -0.7460    2.7840 h1        1 MOL      0.049501
     60 N6          1.8860   -3.3430    3.1560 n         1 MOL     -0.500254
     61 C19         1.7210   -4.7850    3.3900 c3        1 MOL     -0.054735
     62 C20         0.9530   -5.3980    2.2540 c         1 MOL      0.533524
     63 O10        -0.1950   -5.0650    1.9940 o         1 MOL     -0.464084
     64 C21         1.0630   -4.9410    4.7090 c3        1 MOL     -0.175225
     65 C22         0.7930   -6.4220    5.1210 c         1 MOL      0.708424
     66 O11        -0.3970   -6.7460    5.4660 o         1 MOL     -0.653896
     67 O12         1.7550   -7.1880    5.1930 o         1 MOL     -0.653896
     68 H28         1.2830   -2.6820    3.6250 hn        1 MOL      0.297196
     69 H29         2.6760   -5.3160    3.3950 h1        1 MOL      0.060728
     70 H30         0.1340   -4.3690    4.8210 hc        1 MOL      0.063166
     71 H31         1.6250   -4.5710    5.5690 hc        1 MOL      0.063166
     72 N7          1.6840   -6.3130    1.5150 n         1 MOL     -0.371806
     73 C23         1.1020   -7.0890    0.3730 c3        1 MOL     -0.173427
     74 C24         0.6290   -6.1610   -0.7360 c         1 MOL      0.538389
     75 O13        -0.1820   -6.6370   -1.5640 o         1 MOL     -0.587229
     76 H32         2.6430   -6.5410    1.6990 hn        1 MOL      0.281089
     77 H33         0.1730   -7.5210    0.7470 h1        1 MOL      0.126348
     78 H34         1.7460   -7.8810   -0.0010 h1        1 MOL      0.126348
     79 N8          1.0230   -4.9170   -0.8360 n         1 MOL     -0.328781
     80 C25         0.4260   -3.8280   -1.6780 c3        1 MOL     -0.002177
     81 C26        -0.1480   -2.6840   -0.7950 c         1 MOL      0.594449
     82 O14         0.1690   -2.5530    0.3890 o         1 MOL     -0.476498
     83 C27         1.5490   -3.3470   -2.5660 c3        1 MOL      0.279935
     84 C28         1.3280   -2.1870   -3.5760 c3        1 MOL     -0.304169
     85 O15         2.6360   -2.9680   -1.8720 oh        1 MOL     -0.589814
     86 H35         1.6570   -4.6170   -0.1150 hn        1 MOL      0.203488
     87 H36        -0.3040   -4.2330   -2.3750 h1        1 MOL      0.069966
     88 H37         1.9170   -4.2220   -3.0980 h1        1 MOL      0.000046
     89 H38         3.3030   -2.6620   -2.4860 ho        1 MOL      0.389134
     90 H39         0.9330   -2.5290   -4.5310 hc        1 MOL      0.072717
     91 H40         0.7960   -1.3540   -3.1040 hc        1 MOL      0.072717
     92 H41         2.3120   -1.7760   -3.8180 hc        1 MOL      0.072717
     93 N9         -1.0110   -1.8340   -1.3710 n         1 MOL     -0.442885
     94 C29        -1.7600   -0.8000   -0.5810 c3        1 MOL     -0.105758
     95 C30        -3.2250   -1.2110   -0.2940 c         1 MOL      0.591213
     96 O16        -3.7760   -0.7580    0.7080 o         1 MOL     -0.534620
     97 C31        -1.5980    0.6640   -1.1500 c3        1 MOL      0.199205
     98 C32        -1.8620    1.7590   -0.0770 c3        1 MOL      0.141212
     99 C33        -2.4130    0.8340   -2.4140 c3        1 MOL     -0.256204
    100 C34        -1.0340    3.0630   -0.1940 c3        1 MOL     -0.264582
    101 H42        -1.2150   -1.9150   -2.3580 hn        1 MOL      0.280317
    102 H43        -1.2130   -0.7430    0.3540 h1        1 MOL      0.099415
    103 H44        -0.5580    0.8170   -1.4150 hc        1 MOL      0.003273
    104 H45        -1.5400    1.3260    0.8730 hc        1 MOL     -0.002690
    105 H46        -2.9360    1.9440   -0.0550 hc        1 MOL     -0.002690
    106 H47        -3.4830    0.9950   -2.2690 hc        1 MOL      0.049600
    107 H48        -2.0450    1.7570   -2.8700 hc        1 MOL      0.049600
    108 H49        -2.3460    0.0340   -3.1550 hc        1 MOL      0.049600
    109 H50        -0.9640    3.4050   -1.2360 hc        1 MOL      0.057249
    110 H51        -1.5240    3.8040    0.4230 hc        1 MOL      0.057249
    111 H52        -0.0350    2.9580    0.2250 hc        1 MOL      0.057249
    112 N10        -3.7770   -2.1780   -1.0180 n         1 MOL     -0.480845
    113 C35        -5.1550   -2.6920   -0.8520 c3        1 MOL      0.074147
    114 C36        -6.1110   -2.2260   -1.9780 c         1 MOL      0.540195
    115 O17        -5.6280   -1.9280   -3.0710 o         1 MOL     -0.531857
    116 C37        -5.3170   -4.1990   -0.6230 c3        1 MOL      0.312621
    117 C38        -4.4280   -4.7590    0.5680 c3        1 MOL     -0.314484
    118 O18        -6.7000   -4.4580   -0.3260 oh        1 MOL     -0.685237
    119 H53        -3.2270   -2.5770   -1.7670 hn        1 MOL      0.249795
    120 H54        -5.5630   -2.1810    0.0190 h1        1 MOL      0.090226
    121 H55        -5.0300   -4.8040   -1.4920 h1        1 MOL      0.004328
    122 H56        -6.6680   -5.3650   -0.0210 ho        1 MOL      0.421211
    123 H57        -3.4110   -5.0820    0.3090 hc        1 MOL      0.100092
    124 H58        -4.4700   -4.0430    1.3830 hc        1 MOL      0.100092
    125 H59        -4.9680   -5.6370    0.9230 hc        1 MOL      0.100092
    126 N11        -7.3880   -2.0790   -1.6740 n         1 MOL     -0.457738
    127 C39        -8.3660   -1.5460   -2.6410 c3        1 MOL     -0.133301
    128 C40        -8.6400   -0.0280   -2.5690 c         1 MOL      0.688487
    129 O19        -8.9360    0.5650   -3.5600 o         1 MOL     -0.549608
    130 C41        -9.7560   -2.3580   -2.3930 c3        1 MOL      0.393940
    131 C42       -11.0130   -1.8960   -3.1820 c3        1 MOL     -0.537649
    132 O20       -10.1180   -2.2690   -1.0650 oh        1 MOL     -0.636256
    133 H60        -7.6450   -2.1950   -0.6990 hn        1 MOL      0.330251
    134 H61        -8.0680   -1.7760   -3.6660 h1        1 MOL      0.126644
    135 H62        -9.6540   -3.4230   -2.5970 h1        1 MOL      0.010642
    136 H63       -10.9230   -2.7780   -0.9660 ho        1 MOL      0.405485
    137 H64       -10.7330   -2.0560   -4.2180 hc        1 MOL      0.136071
    138 H65       -11.8890   -2.5060   -2.9600 hc        1 MOL      0.136071
    139 H66       -11.0940   -0.8290   -2.9660 hc        1 MOL      0.136071
    140 N12        -8.4430    0.5130   -1.3260 n         1 MOL     -0.445121
    141 C43        -8.6990    1.9340   -1.0290 c3        1 MOL     -0.028294
    142 C44        -8.1020    2.4390    0.3140 c         1 MOL      0.538299
    143 O21        -7.8880    1.5590    1.2080 o         1 MOL     -0.503157
    144 C45       -10.2060    2.2130   -0.9520 c3        1 MOL     -0.192913
    145 C46       -11.1060    1.2930   -0.1370 c3        1 MOL      0.059450
    146 C47       -12.6300    1.5250   -0.3030 c3        1 MOL      0.015833
    147 C48       -13.2690    0.7660    0.8140 c3        1 MOL      0.077121
    148 N13       -14.7170    0.7640    0.6470 n4        1 MOL     -0.270787
    149 H67        -8.1730   -0.1280   -0.5960 hn        1 MOL      0.259835
    150 H68        -8.3220    2.4980   -1.8750 h1        1 MOL      0.110162
    151 H69       -10.5750    2.2190   -1.9790 hc        1 MOL      0.065406
    152 H70       -10.4300    3.1580   -0.4520 hc        1 MOL      0.065406
    153 H71       -10.8560    1.4940    0.9040 hc        1 MOL      0.013036
    154 H72       -10.8300    0.2580   -0.3400 hc        1 MOL      0.013036
    155 H73       -12.8150    1.1700   -1.3260 hc        1 MOL      0.015062
    156 H74       -12.8970    2.5780   -0.3410 hc        1 MOL      0.015062
    157 H75       -12.8800    1.1020    1.7730 hx        1 MOL      0.055606
    158 H76       -12.9280   -0.2610    0.6790 hx        1 MOL      0.055606
    159 H77       -15.0090    0.4000   -0.2560 hn        1 MOL      0.255471
    160 H78       -15.0880    0.0570    1.2710 hn        1 MOL      0.255471
    161 H79       -15.0830    1.6560    0.9200 hn        1 MOL      0.255471
    162 N14        -7.9280    3.7750    0.4340 n         1 MOL     -0.403118
    163 C49        -7.3100    4.5010    1.5750 c3        1 MOL      0.173493
    164 C50        -5.7760    4.3640    1.5590 c         1 MOL      0.401205
    165 O22        -5.2710    3.8900    2.5810 o         1 MOL     -0.516488
    166 C51        -7.8620    5.9430    1.4670 c3        1 MOL      0.051125
    167 C52        -7.3640    6.8160    2.6730 c3        1 MOL     -0.299538
    168 C53        -7.8430    8.2210    2.4100 c         1 MOL      0.752494
    169 O23        -6.9900    9.1640    2.4540 o         1 MOL     -0.641538
    170 O24        -8.9570    8.5020    2.0620 o         1 MOL     -0.641538
    171 H80        -8.3970    4.3090   -0.2890 hn        1 MOL      0.218586
    172 H81        -7.7020    4.0660    2.4930 h1        1 MOL      0.047914
    173 H82        -8.9490    5.9980    1.5530 hc        1 MOL      0.004504
    174 H83        -7.6690    6.3480    0.4810 hc        1 MOL      0.004504
    175 H84        -6.3010    6.6670    2.8530 hc        1 MOL      0.068942
    176 H85        -7.8460    6.4200    3.5640 hc        1 MOL      0.068942
    177 N15        -5.0350    4.5870    0.4710 n         1 MOL     -0.307438
    178 C54        -5.4180    5.1220   -0.8740 c3        1 MOL     -0.142871
    179 H86        -4.5190    5.4220   -1.4140 h1        1 MOL      0.082016
    180 H87        -5.9390    4.3490   -1.4380 h1        1 MOL      0.082016
    181 H88        -6.0720    5.9850   -0.7500 h1        1 MOL      0.082016
    182 H89        -4.0450    4.4110    0.5340 hn        1 MOL      0.267529
    183 Ca1         6.9510    4.9250   -0.2080 Ca        1 MOL      1.529891
    184 O25         7.1450    3.9240   -2.7870 oh        1 MOL     -0.800555
    185 H90         6.4760    4.5980   -2.8790 ho        1 MOL      0.366933
    186 H91         7.4610    3.7790   -3.6840 ho        1 MOL      0.366933
@<TRIPOS>BOND
     1    1    2 1   
     2    1    4 1   
     3    1    5 1   
     4    1    6 1   
     5    2    3 2   
     6    2    7 1   
     7    7    8 1   
     8    7   15 1   
     9    8    9 1   
    10    8   11 1   
    11    8   16 1   
    12    9   10 2   
    13    9   19 1   
    14   11   12 1   
    15   11   17 1   
    16   11   18 1   
    17   12   13 1   
    18   12   14 1   
    19   19   20 1   
    20   19   28 1   
    21   20   21 1   
    22   20   23 1   
    23   20   29 1   
    24   21   22 2   
    25   21   41 1   
    26   23   24 1   
    27   23   30 1   
    28   23   31 1   
    29   24   25 1   
    30   24   32 1   
    31   24   33 1   
    32   25   26 1   
    33   25   34 1   
    34   25   35 1   
    35   26   27 1   
    36   26   36 1   
    37   26   37 1   
    38   27   38 1   
    39   27   39 1   
    40   27   40 1   
    41   41   42 1   
    42   41   49 1   
    43   42   43 1   
    44   42   45 1   
    45   42   50 1   
    46   43   44 2   
    47   43   53 1   
    48   45   46 1   
    49   45   51 1   
    50   45   52 1   
    51   46   47 1   
    52   46   48 1   
    53   53   54 1   
    54   53   57 1   
    55   54   55 1   
    56   54   58 1   
    57   54   59 1   
    58   55   56 2   
    59   55   60 1   
    60   60   61 1   
    61   60   68 1   
    62   61   62 1   
    63   61   64 1   
    64   61   69 1   
    65   62   63 2   
    66   62   72 1   
    67   64   65 1   
    68   64   70 1   
    69   64   71 1   
    70   65   66 1   
    71   65   67 1   
    72   72   73 1   
    73   72   76 1   
    74   73   74 1   
    75   73   77 1   
    76   73   78 1   
    77   74   75 2   
    78   74   79 1   
    79   79   80 1   
    80   79   86 1   
    81   80   81 1   
    82   80   83 1   
    83   80   87 1   
    84   81   82 2   
    85   81   93 1   
    86   83   84 1   
    87   83   85 1   
    88   83   88 1   
    89   84   90 1   
    90   84   91 1   
    91   84   92 1   
    92   85   89 1   
    93   93   94 1   
    94   93  101 1   
    95   94   95 1   
    96   94   97 1   
    97   94  102 1   
    98   95   96 2   
    99   95  112 1   
   100   97   98 1   
   101   97   99 1   
   102   97  103 1   
   103   98  100 1   
   104   98  104 1   
   105   98  105 1   
   106   99  106 1   
   107   99  107 1   
   108   99  108 1   
   109  100  109 1   
   110  100  110 1   
   111  100  111 1   
   112  112  113 1   
   113  112  119 1   
   114  113  114 1   
   115  113  116 1   
   116  113  120 1   
   117  114  115 2   
   118  114  126 1   
   119  116  117 1   
   120  116  118 1   
   121  116  121 1   
   122  117  123 1   
   123  117  124 1   
   124  117  125 1   
   125  118  122 1   
   126  126  127 1   
   127  126  133 1   
   128  127  128 1   
   129  127  130 1   
   130  127  134 1   
   131  128  129 2   
   132  128  140 1   
   133  130  131 1   
   134  130  132 1   
   135  130  135 1   
   136  131  137 1   
   137  131  138 1   
   138  131  139 1   
   139  132  136 1   
   140  140  141 1   
   141  140  149 1   
   142  141  142 1   
   143  141  144 1   
   144  141  150 1   
   145  142  143 2   
   146  142  162 1   
   147  144  145 1   
   148  144  151 1   
   149  144  152 1   
   150  145  146 1   
   151  145  153 1   
   152  145  154 1   
   153  146  147 1   
   154  146  155 1   
   155  146  156 1   
   156  147  148 1   
   157  147  157 1   
   158  147  158 1   
   159  148  159 1   
   160  148  160 1   
   161  148  161 1   
   162  162  163 1   
   163  162  171 1   
   164  163  164 1   
   165  163  166 1   
   166  163  172 1   
   167  164  165 2   
   168  164  177 1   
   169  166  167 1   
   170  166  173 1   
   171  166  174 1   
   172  167  168 1   
   173  167  175 1   
   174  167  176 1   
   175  168  169 1   
   176  168  170 1   
   177  177  178 1   
   178  177  182 1   
   179  178  179 1   
   180  178  180 1   
   181  178  181 1   
   182  184  185 1   
   183  184  186 1   
@<TRIPOS>SUBSTRUCTURE
     1 MOL         1 TEMP              0 ****  ****    0 ROOT
