@<TRIPOS>MOLECULE
MOL
  185   180     1     0     0
SMALL
resp


@<TRIPOS>ATOM
      1 C1         -5.5200    2.2540    5.2660 c3        1 MOL     -0.432734
      2 C2         -4.9500    1.3990    4.0930 c         1 MOL      0.600829
      3 O1         -3.7110    1.1100    4.0130 o         1 MOL     -0.588263
      4 H1         -5.8200    1.5950    6.0810 hc        1 MOL      0.115814
      5 H2         -4.7540    2.9430    5.6190 hc        1 MOL      0.115814
      6 H3         -6.3850    2.8180    4.9180 hc        1 MOL      0.115814
      7 N1         -5.9440    0.9400    3.2380 n         1 MOL     -0.365519
      8 C3         -5.5520    0.4090    1.9160 c3        1 MOL     -0.056975
      9 C4         -4.9210    1.4420    1.0160 c         1 MOL      0.468775
     10 O2         -3.9850    1.1890    0.3060 o         1 MOL     -0.588865
     11 C5         -6.7730   -0.3450    1.3140 c3        1 MOL     -0.028715
     12 C6         -8.0850    0.3950    1.3130 c         1 MOL      0.570469
     13 O3         -8.1090    1.6280    1.5470 o         1 MOL     -0.613655
     14 O4         -9.0020   -0.1010    0.6220 o         1 MOL     -0.613655
     15 H4         -6.8690    1.3370    3.2360 hn        1 MOL      0.180091
     16 H5         -4.7840   -0.3060    2.2060 h1        1 MOL      0.084565
     17 H6         -6.7430   -1.2820    1.8800 hc        1 MOL      0.044510
     18 H7         -6.5840   -0.6710    0.2950 hc        1 MOL      0.044510
     19 N2         -5.4460    2.6630    0.9960 n         1 MOL     -0.287841
     20 C7         -5.0030    3.7800    0.0820 c3        1 MOL     -0.078523
     21 C8         -5.0730    3.3920   -1.4210 c         1 MOL      0.523258
     22 O5         -6.1910    3.2730   -2.0010 o         1 MOL     -0.530461
     23 C9         -5.8820    5.0470    0.2420 c3        1 MOL     -0.014385
     24 C10        -5.6210    5.6780    1.6130 c3        1 MOL      0.040045
     25 C11        -6.6210    6.8820    1.8350 c3        1 MOL     -0.219456
     26 C12        -6.5800    7.5940    3.2570 c3        1 MOL      0.127019
     27 N3         -7.4420    8.7320    3.5700 n4        1 MOL     -0.368032
     28 H8         -6.3710    2.7330    1.3780 hn        1 MOL      0.264225
     29 H9         -3.9530    3.9720    0.3290 h1        1 MOL      0.096920
     30 H10        -6.9220    4.8310   -0.0170 hc        1 MOL      0.051639
     31 H11        -5.5430    5.7750   -0.5020 hc        1 MOL      0.051639
     32 H12        -4.5860    6.0210    1.6830 hc        1 MOL      0.003198
     33 H13        -5.7820    5.0160    2.4650 hc        1 MOL      0.003198
     34 H14        -7.6220    6.4450    1.7630 hc        1 MOL      0.084671
     35 H15        -6.4790    7.6170    1.0400 hc        1 MOL      0.084671
     36 H16        -5.5920    7.8920    3.5950 hx        1 MOL      0.068320
     37 H17        -6.7570    6.8330    4.0250 hx        1 MOL      0.068320
     38 H18        -7.5110    9.3290    2.7650 hn        1 MOL      0.310565
     39 H19        -8.4170    8.5470    3.7500 hn        1 MOL      0.310565
     40 H20        -7.0880    9.3220    4.3130 hn        1 MOL      0.310565
     41 N4         -3.9730    3.2760   -2.0570 n         1 MOL     -0.429466
     42 C13        -3.7630    2.7500   -3.4310 c3        1 MOL      0.046018
     43 C14        -4.2060    1.2590   -3.5400 c         1 MOL      0.478116
     44 O6         -4.1870    0.8330   -4.6980 o         1 MOL     -0.534069
     45 C15        -2.2440    2.8830   -3.8290 c3        1 MOL     -0.297193
     46 C16        -1.2600    2.0910   -2.9330 c         1 MOL      0.756863
     47 O7         -0.4220    1.3590   -3.5520 o         1 MOL     -0.738105
     48 O8         -1.2100    2.0460   -1.7030 o         1 MOL     -0.738105
     49 H21        -3.1800    3.3720   -1.4360 hn        1 MOL      0.241187
     50 H22        -4.4210    3.3010   -4.1080 h1        1 MOL      0.096377
     51 H23        -1.9690    3.9330   -3.9100 hc        1 MOL      0.104070
     52 H24        -2.0910    2.4580   -4.8160 hc        1 MOL      0.104070
     53 N5         -4.4140    0.5940   -2.4180 n         1 MOL     -0.359872
     54 C17        -4.7120   -0.8400   -2.4430 c3        1 MOL      0.116419
     55 C18        -6.1610   -1.1570   -2.8580 c         1 MOL      0.520534
     56 O9         -7.0230   -0.2440   -2.8150 o         1 MOL     -0.437898
     57 H25        -4.2190    1.0840   -1.5540 hn        1 MOL      0.359065
     58 H26        -4.7040   -1.2130   -1.4150 h1        1 MOL      0.009982
     59 H27        -4.0210   -1.4300   -3.0440 h1        1 MOL      0.009982
     60 N6         -6.4770   -2.4150   -3.1630 n         1 MOL     -0.671231
     61 C19        -5.7750   -3.6240   -2.7120 c3        1 MOL      0.411065
     62 C20        -5.9640   -3.6990   -1.1130 c         1 MOL      0.421692
     63 O10        -7.0810   -3.4730   -0.5760 o         1 MOL     -0.520755
     64 C21        -6.3640   -4.8490   -3.2970 c3        1 MOL     -0.518640
     65 C22        -6.2720   -5.0400   -4.8130 c         1 MOL      0.764076
     66 N7         -7.1950   -4.4740   -5.5130 n         1 MOL     -0.812196
     67 O11        -5.3230   -5.6200   -5.3460 o         1 MOL     -0.591296
     68 H28        -7.4590   -2.5240   -3.3720 hn        1 MOL      0.331704
     69 H29        -4.7180   -3.6370   -2.9850 h1        1 MOL      0.021349
     70 H30        -7.4390   -4.9440   -3.1240 hc        1 MOL      0.142821
     71 H31        -5.7250   -5.6180   -2.8680 hc        1 MOL      0.142821
     72 H32        -7.8580   -3.8710   -5.0480 hn        1 MOL      0.380683
     73 H33        -7.0370   -4.3670   -6.5000 hn        1 MOL      0.380683
     74 N8         -4.9390   -3.9240   -0.3080 n         1 MOL     -0.387084
     75 C23        -3.4750   -3.9570   -0.6690 c3        1 MOL     -0.120569
     76 C24        -2.6250   -3.9470    0.5640 c         1 MOL      0.693399
     77 O12        -3.0940   -4.2350    1.6470 o         1 MOL     -0.513035
     78 H34        -5.1670   -3.8870    0.6730 hn        1 MOL      0.286015
     79 H35        -3.2270   -3.2120   -1.4180 h1        1 MOL      0.072845
     80 H36        -3.4810   -4.9260   -1.1710 h1        1 MOL      0.072845
     81 N9         -1.3180   -3.7060    0.4510 n         1 MOL     -0.716797
     82 C25        -0.4040   -3.4360    1.5520 c3        1 MOL      0.309140
     83 C26         0.8100   -2.5120    1.2290 c         1 MOL      0.661067
     84 O13         0.9610   -2.0140    0.1110 o         1 MOL     -0.565738
     85 C27         0.1270   -4.8770    1.9790 c3        1 MOL     -0.263172
     86 C28         0.9650   -4.9200    3.2760 ca        1 MOL      0.059920
     87 C29         2.1820   -5.6000    3.3190 ca        1 MOL     -0.132926
     88 C30         0.4600   -4.4790    4.5360 ca        1 MOL     -0.132926
     89 C31         3.0100   -5.7460    4.5110 ca        1 MOL     -0.339073
     90 C32         1.1050   -4.8530    5.7380 ca        1 MOL     -0.339073
     91 C33         2.4240   -5.3780    5.7190 ca        1 MOL      0.472904
     92 O14         2.9650   -5.5450    6.8760 oh        1 MOL     -0.506024
     93 H37        -0.8760   -3.4120   -0.4160 hn        1 MOL      0.341349
     94 H38        -0.9340   -2.9630    2.3810 h1        1 MOL     -0.010025
     95 H39         0.6990   -5.2660    1.1350 hc        1 MOL      0.118395
     96 H40        -0.7930   -5.4500    2.1560 hc        1 MOL      0.118395
     97 H41         2.5780   -5.9690    2.3790 ha        1 MOL      0.135731
     98 H42        -0.4480   -3.8910    4.5030 ha        1 MOL      0.135731
     99 H43         3.9310   -6.3170    4.4880 ha        1 MOL      0.164429
    100 H44         0.5730   -4.5490    6.6300 ha        1 MOL      0.164429
    101 H45         2.4200   -5.1890    7.5740 ho        1 MOL      0.380395
    102 N10         1.6570   -2.3310    2.2050 n         1 MOL     -0.754064
    103 C34         2.8120   -1.4660    2.0000 c3        1 MOL      0.194915
    104 C35         3.7820   -2.1050    0.9840 c         1 MOL      0.385990
    105 O15         3.7860   -3.3560    0.8180 o         1 MOL     -0.507175
    106 C36         3.6520   -1.2270    3.3570 c3        1 MOL      0.047231
    107 C37         3.1170    0.0180    4.1650 c3        1 MOL     -0.016117
    108 C38         3.7090   -2.4860    4.2640 c3        1 MOL     -0.062075
    109 C39         3.2870    1.4020    3.5210 c3        1 MOL     -0.019220
    110 H46         1.6410   -2.9260    3.0230 hn        1 MOL      0.347948
    111 H47         2.5360   -0.4450    1.7260 h1        1 MOL      0.129393
    112 H48         4.6870   -1.1080    3.0530 hc        1 MOL      0.040597
    113 H49         3.6260   -0.0050    5.1290 hc        1 MOL     -0.012092
    114 H50         2.0910   -0.1740    4.4700 hc        1 MOL     -0.012092
    115 H51         2.8100   -2.7170    4.8300 hc        1 MOL      0.018333
    116 H52         3.9580   -3.3350    3.6270 hc        1 MOL      0.018333
    117 H53         4.6010   -2.3540    4.8720 hc        1 MOL      0.018333
    118 H54         2.3470    1.8390    3.1960 hc        1 MOL      0.008321
    119 H55         3.7550    2.0760    4.2370 hc        1 MOL      0.008321
    120 H56         3.9660    1.3440    2.6730 hc        1 MOL      0.008321
    121 N11         4.6900   -1.3010    0.3730 n         1 MOL     -0.239227
    122 C40         5.8900   -1.8740   -0.2940 c3        1 MOL      0.096541
    123 C41         6.1600   -1.2780   -1.6970 c         1 MOL      0.442021
    124 O16         5.4750   -0.3570   -2.2300 o         1 MOL     -0.422960
    125 C42         7.1150   -1.5820    0.5770 c3        1 MOL      0.022067
    126 O17         7.2080   -0.1750    0.7270 oh        1 MOL     -0.499863
    127 H57         4.5610   -0.3000    0.4030 hn        1 MOL      0.046099
    128 H58         5.8690   -2.9590   -0.2920 h1        1 MOL      0.068585
    129 H59         8.0160   -1.9170    0.0850 h1        1 MOL      0.042558
    130 H60         7.0190   -2.0430    1.5650 h1        1 MOL      0.042558
    131 H61         8.0360    0.0260    1.1630 ho        1 MOL      0.415822
    132 N12         7.1300   -1.8920   -2.3630 n         1 MOL     -0.449398
    133 C43         7.8090   -1.2790   -3.5100 c3        1 MOL      0.135516
    134 C44         8.4100    0.1460   -3.2440 c         1 MOL      0.475164
    135 O18         8.2250    1.0440   -4.0720 o         1 MOL     -0.465837
    136 C45         6.9110   -1.3650   -4.7310 c3        1 MOL     -0.346762
    137 H62         7.4550   -2.7990   -2.0750 hn        1 MOL      0.288650
    138 H63         8.6520   -1.9080   -3.7970 h1        1 MOL      0.053378
    139 H64         6.1300   -0.5990   -4.7160 hc        1 MOL      0.106635
    140 H65         7.4980   -1.4210   -5.6570 hc        1 MOL      0.106635
    141 H66         6.3020   -2.2640   -4.6630 hc        1 MOL      0.106635
    142 N13         9.1300    0.2260   -2.1850 n         1 MOL     -0.423187
    143 C46         9.8250    1.4310   -1.7770 c3        1 MOL      0.277344
    144 C47         8.9400    2.6710   -1.5350 c         1 MOL      0.263130
    145 O19         9.2780    3.8350   -1.8090 o         1 MOL     -0.443336
    146 C48        11.0130    1.7200   -2.6790 c3        1 MOL     -0.414573
    147 H67         9.2560   -0.5830   -1.5980 hn        1 MOL      0.251121
    148 H68        10.3210    1.1720   -0.8370 h1        1 MOL      0.023825
    149 H69        10.7130    1.8620   -3.7140 hc        1 MOL      0.117351
    150 H70        11.5800    2.5820   -2.3250 hc        1 MOL      0.117351
    151 H71        11.6050    0.8090   -2.7710 hc        1 MOL      0.117351
    152 N14         7.8250    2.3830   -0.8260 n         1 MOL      0.020907
    153 C49         6.7810    3.2770   -0.4720 c3        1 MOL     -0.317429
    154 C50         7.2480    4.1800    0.7050 c         1 MOL      0.447970
    155 O20         6.9460    5.4010    0.6950 o         1 MOL     -0.527789
    156 C51         5.5180    2.4470   -0.2570 c3        1 MOL      0.432654
    157 C52         4.1280    3.2170   -0.1150 c3        1 MOL     -0.164768
    158 C53         2.9180    2.2930   -0.3360 c         1 MOL      0.865402
    159 O21         2.8960    1.0530   -0.0950 o         1 MOL     -0.776685
    160 O22         1.8540    2.6800   -0.8770 o         1 MOL     -0.776685
    161 H72         7.7470    1.4400   -0.4670 hn        1 MOL     -0.054463
    162 H73         6.5970    3.9030   -1.3420 h1        1 MOL      0.180438
    163 H74         5.5870    1.9200    0.6940 hc        1 MOL     -0.074412
    164 H75         5.3120    1.8110   -1.1240 hc        1 MOL     -0.074412
    165 H76         4.0930    4.0220   -0.8390 hc        1 MOL      0.005303
    166 H77         4.0810    3.6190    0.9010 hc        1 MOL      0.005303
    167 N15         7.9380    3.6650    1.6540 n         1 MOL     -0.127220
    168 C54         8.5010    4.4390    2.7790 c3        1 MOL     -0.368917
    169 H78         9.1180    5.2490    2.3900 h1        1 MOL      0.145163
    170 H79         7.6900    4.8560    3.3770 h1        1 MOL      0.145163
    171 H80         9.1120    3.7850    3.4010 h1        1 MOL      0.145163
    172 H81         8.0600    2.6650    1.5330 hn        1 MOL      0.149720
    173 Ca1         0.6120    0.4040   -1.0260 Ca        1 MOL      1.776859
    174 O23         0.2660    1.3840    1.9080 oh        1 MOL     -0.887945
    175 H82        -0.3220    0.7850    2.3630 ho        1 MOL      0.429487
    176 H83         0.0280    2.2540    2.2260 ho        1 MOL      0.429487
    177 O24         2.4520   -0.3490   -2.5970 oh        1 MOL     -0.887945
    178 H84         3.3740   -0.2270   -2.3630 ho        1 MOL      0.429487
    179 H85         2.4770   -0.6730   -3.5020 ho        1 MOL      0.429487
    180 O25        -0.4610   -1.6310   -2.7530 oh        1 MOL     -0.887945
    181 H86        -0.8790   -1.2760   -3.5390 ho        1 MOL      0.429487
    182 H87        -0.3380   -2.5550   -2.9580 ho        1 MOL      0.429487
    183 O26        -1.5500   -0.2520    0.5010 oh        1 MOL     -0.887945
    184 H88        -1.5780   -0.3840    1.4580 ho        1 MOL      0.429487
    185 H89        -2.3520    0.2260    0.3030 ho        1 MOL      0.429487
@<TRIPOS>BOND
     1    1    2 1   
     2    1    4 1   
     3    1    5 1   
     4    1    6 1   
     5    2    3 2   
     6    2    7 1   
     7    7    8 1   
     8    7   15 1   
     9    8    9 1   
    10    8   11 1   
    11    8   16 1   
    12    9   10 2   
    13    9   19 1   
    14   11   12 1   
    15   11   17 1   
    16   11   18 1   
    17   12   13 1   
    18   12   14 1   
    19   19   20 1   
    20   19   28 1   
    21   20   21 1   
    22   20   23 1   
    23   20   29 1   
    24   21   22 2   
    25   21   41 1   
    26   23   24 1   
    27   23   30 1   
    28   23   31 1   
    29   24   25 1   
    30   24   32 1   
    31   24   33 1   
    32   25   26 1   
    33   25   34 1   
    34   25   35 1   
    35   26   27 1   
    36   26   36 1   
    37   26   37 1   
    38   27   38 1   
    39   27   39 1   
    40   27   40 1   
    41   41   42 1   
    42   41   49 1   
    43   42   43 1   
    44   42   45 1   
    45   42   50 1   
    46   43   44 2   
    47   43   53 1   
    48   45   46 1   
    49   45   51 1   
    50   45   52 1   
    51   46   47 1   
    52   46   48 1   
    53   53   54 1   
    54   53   57 1   
    55   54   55 1   
    56   54   58 1   
    57   54   59 1   
    58   55   56 2   
    59   55   60 1   
    60   60   61 1   
    61   60   68 1   
    62   61   62 1   
    63   61   64 1   
    64   61   69 1   
    65   62   63 2   
    66   62   74 1   
    67   64   65 1   
    68   64   70 1   
    69   64   71 1   
    70   65   66 1   
    71   65   67 2   
    72   66   72 1   
    73   66   73 1   
    74   74   75 1   
    75   74   78 1   
    76   75   76 1   
    77   75   79 1   
    78   75   80 1   
    79   76   77 2   
    80   76   81 1   
    81   81   82 1   
    82   81   93 1   
    83   82   83 1   
    84   82   85 1   
    85   82   94 1   
    86   83   84 2   
    87   83  102 1   
    88   85   86 1   
    89   85   95 1   
    90   85   96 1   
    91   86   87 ar  
    92   86   88 ar  
    93   87   89 ar  
    94   87   97 1   
    95   88   90 ar  
    96   88   98 1   
    97   89   91 ar  
    98   89   99 1   
    99   90   91 ar  
   100   90  100 1   
   101   91   92 1   
   102   92  101 1   
   103  102  103 1   
   104  102  110 1   
   105  103  104 1   
   106  103  106 1   
   107  103  111 1   
   108  104  105 2   
   109  104  121 1   
   110  106  107 1   
   111  106  108 1   
   112  106  112 1   
   113  107  109 1   
   114  107  113 1   
   115  107  114 1   
   116  108  115 1   
   117  108  116 1   
   118  108  117 1   
   119  109  118 1   
   120  109  119 1   
   121  109  120 1   
   122  121  122 1   
   123  121  127 1   
   124  122  123 1   
   125  122  125 1   
   126  122  128 1   
   127  123  124 2   
   128  123  132 1   
   129  125  126 1   
   130  125  129 1   
   131  125  130 1   
   132  126  131 1   
   133  132  133 1   
   134  132  137 1   
   135  133  134 1   
   136  133  136 1   
   137  133  138 1   
   138  134  135 2   
   139  134  142 1   
   140  136  139 1   
   141  136  140 1   
   142  136  141 1   
   143  142  143 1   
   144  142  147 1   
   145  143  144 1   
   146  143  146 1   
   147  143  148 1   
   148  144  145 2   
   149  144  152 1   
   150  146  149 1   
   151  146  150 1   
   152  146  151 1   
   153  152  153 1   
   154  152  161 1   
   155  153  154 1   
   156  153  156 1   
   157  153  162 1   
   158  154  155 2   
   159  154  167 1   
   160  156  157 1   
   161  156  163 1   
   162  156  164 1   
   163  157  158 1   
   164  157  165 1   
   165  157  166 1   
   166  158  159 1   
   167  158  160 1   
   168  167  168 1   
   169  167  172 1   
   170  168  169 1   
   171  168  170 1   
   172  168  171 1   
   173  174  175 1   
   174  174  176 1   
   175  177  178 1   
   176  177  179 1   
   177  180  181 1   
   178  180  182 1   
   179  183  184 1   
   180  183  185 1   
@<TRIPOS>SUBSTRUCTURE
     1 MOL         1 TEMP              0 ****  ****    0 ROOT
