@<TRIPOS>MOLECULE
MOL
  192   187     1     0     0
SMALL
resp


@<TRIPOS>ATOM
      1 C1         11.4800    6.6470   -1.8630 c3        1 MOL     -0.378513
      2 C2         11.4250    5.2770   -1.1880 c         1 MOL      0.775384
      3 O1         12.4360    4.6860   -0.8730 o         1 MOL     -0.571131
      4 H1         10.4900    7.1030   -1.8370 hc        1 MOL      0.102863
      5 H2         12.1880    7.2850   -1.3330 hc        1 MOL      0.102863
      6 H3         11.7980    6.5300   -2.8980 hc        1 MOL      0.102863
      7 N1         10.1680    4.8360   -0.9170 n         1 MOL     -0.591628
      8 C3         10.0940    3.7680    0.1150 c3        1 MOL     -0.239728
      9 C4          8.9230    2.8450   -0.2720 c         1 MOL      0.651841
     10 O2          7.7630    3.2670   -0.3450 o         1 MOL     -0.680000
     11 C5          9.9300    4.2640    1.5540 c3        1 MOL      0.177197
     12 C6          9.1170    5.5840    1.6450 c         1 MOL      0.547366
     13 O3          7.8710    5.4660    1.8040 o         1 MOL     -0.677490
     14 O4          9.7130    6.7170    1.6070 o         1 MOL     -0.677490
     15 H4          9.4020    5.4240   -1.2330 hn        1 MOL      0.306916
     16 H5         10.9160    3.0530    0.1080 h1        1 MOL      0.115113
     17 H6         10.9460    4.4560    1.8960 hc        1 MOL      0.010928
     18 H7          9.6350    3.4450    2.2020 hc        1 MOL      0.010928
     19 N2          9.2610    1.5590   -0.3780 n         1 MOL     -0.402861
     20 C7          8.3000    0.5520   -0.7330 c3        1 MOL     -0.015479
     21 C8          7.4910    0.0030    0.4360 c         1 MOL      0.747038
     22 O5          7.9520   -0.4950    1.4430 o         1 MOL     -0.565960
     23 C9          9.0970   -0.6070   -1.3960 c3        1 MOL     -0.382528
     24 C10         8.2220   -1.6760   -2.0390 c3        1 MOL      0.190725
     25 C11         8.9160   -2.6930   -2.8390 c3        1 MOL     -0.130923
     26 C12         7.8400   -3.5270   -3.5750 c3        1 MOL      0.127114
     27 N3          6.8720   -4.2400   -2.7900 n4        1 MOL     -0.272925
     28 H8         10.2390    1.3160   -0.2920 hn        1 MOL      0.303034
     29 H9          7.5610    0.9590   -1.4140 h1        1 MOL      0.087706
     30 H10         9.6890   -1.1410   -0.6610 hc        1 MOL      0.122559
     31 H11         9.7010   -0.0870   -2.1480 hc        1 MOL      0.122559
     32 H12         7.5260   -1.1830   -2.7260 hc        1 MOL      0.003472
     33 H13         7.7320   -2.1350   -1.1850 hc        1 MOL      0.003472
     34 H14         9.3760   -3.4420   -2.1880 hc        1 MOL      0.076739
     35 H15         9.5670   -2.2220   -3.5620 hc        1 MOL      0.076739
     36 H16         8.3110   -4.2810   -4.2000 hx        1 MOL      0.017797
     37 H17         7.2090   -2.9310   -4.2370 hx        1 MOL      0.017797
     38 H18         7.3720   -4.8700   -2.1770 hn        1 MOL      0.275206
     39 H19         6.2420   -3.5640   -2.3750 hn        1 MOL      0.275206
     40 H20         6.3030   -4.8580   -3.3410 hn        1 MOL      0.275206
     41 N4          6.1730    0.0790    0.3060 n         1 MOL     -0.524056
     42 C13         5.1690   -0.3280    1.2420 c3        1 MOL     -0.115882
     43 C14         3.8560   -0.5860    0.4820 c         1 MOL      0.684119
     44 O6          3.7560   -0.4290   -0.7420 o         1 MOL     -0.602488
     45 C15         5.0550    0.6580    2.4660 c3        1 MOL     -0.110321
     46 C16         5.0620    2.1430    1.9850 c         1 MOL      0.746884
     47 O7          4.3870    2.5240    1.0350 o         1 MOL     -0.746174
     48 O8          5.7770    2.9680    2.5550 o         1 MOL     -0.746174
     49 H21         5.8240    0.3310   -0.6060 hn        1 MOL      0.204684
     50 H22         5.4650   -1.3250    1.5630 h1        1 MOL      0.136996
     51 H23         5.8150    0.5750    3.2340 hc        1 MOL      0.071309
     52 H24         4.1680    0.4730    3.0610 hc        1 MOL      0.071309
     53 N5          2.8230   -1.2320    1.0630 n         1 MOL     -0.609172
     54 C17         2.6790   -1.9140    2.3490 c3        1 MOL      0.096227
     55 C18         2.9120   -3.4360    2.0980 c         1 MOL      0.484761
     56 O9          3.0940   -3.8490    0.9740 o         1 MOL     -0.531199
     57 H25         2.0290   -1.3400    0.4520 hn        1 MOL      0.367701
     58 H26         1.7520   -1.7880    2.9100 h1        1 MOL      0.052486
     59 H27         3.4040   -1.5940    3.1020 h1        1 MOL      0.052486
     60 N6          2.9030   -4.2460    3.1360 n         1 MOL     -0.366180
     61 C19         3.3820   -5.6070    2.9380 c3        1 MOL      0.009399
     62 C20         2.4790   -6.3640    1.9340 c         1 MOL      0.430284
     63 O10         3.0030   -7.1720    1.1500 o         1 MOL     -0.549526
     64 C21         3.4870   -6.3820    4.2460 c3        1 MOL     -0.155015
     65 C22         4.1420   -5.6170    5.4030 c         1 MOL      0.761124
     66 O11         3.4210   -4.8760    6.1140 o         1 MOL     -0.690566
     67 O12         5.3550   -5.7940    5.6230 o         1 MOL     -0.690566
     68 H28         2.9390   -3.8650    4.0770 hn        1 MOL      0.207951
     69 H29         4.3690   -5.5050    2.4870 h1        1 MOL      0.091289
     70 H30         4.1060   -7.2420    3.9740 hc        1 MOL      0.022024
     71 H31         2.5240   -6.7410    4.6160 hc        1 MOL      0.022024
     72 N7          1.1880   -6.0860    1.9340 n         1 MOL     -0.189313
     73 C23         0.1540   -6.6370    1.0230 c3        1 MOL     -0.194363
     74 C24        -0.0870   -5.8160   -0.2260 c         1 MOL      0.625067
     75 O13        -1.0620   -6.1020   -0.9440 o         1 MOL     -0.574903
     76 H32         0.8570   -5.3890    2.5980 hn        1 MOL      0.210285
     77 H33        -0.7190   -6.7130    1.6720 h1        1 MOL      0.120648
     78 H34         0.4200   -7.6730    0.8060 h1        1 MOL      0.120648
     79 N8          0.8090   -4.7850   -0.5780 n         1 MOL     -0.501681
     80 C25         0.7890   -3.8260   -1.7260 c3        1 MOL      0.346669
     81 C26         0.3800   -2.3850   -1.4490 c         1 MOL      0.291394
     82 O14         0.5640   -1.9110   -0.3390 o         1 MOL     -0.462465
     83 C27         2.0230   -3.9480   -2.5890 c3        1 MOL      0.133064
     84 C28         2.2340   -5.3160   -3.2560 c3        1 MOL     -0.317536
     85 O15         1.9720   -3.0170   -3.6890 oh        1 MOL     -0.590757
     86 H35         1.6410   -4.8670   -0.0120 hn        1 MOL      0.243982
     87 H36         0.0400   -4.1660   -2.4440 h1        1 MOL      0.004188
     88 H37         2.9280   -3.8800   -1.9800 h1        1 MOL      0.017050
     89 H38         2.8330   -3.0890   -4.1130 ho        1 MOL      0.380267
     90 H39         2.4330   -6.1080   -2.5370 hc        1 MOL      0.088492
     91 H40         1.3530   -5.6690   -3.7790 hc        1 MOL      0.088492
     92 H41         3.1380   -5.4300   -3.8510 hc        1 MOL      0.088492
     93 N9         -0.3820   -1.7940   -2.3570 n         1 MOL     -0.131391
     94 C29        -0.7350   -0.3800   -2.2640 c3        1 MOL     -0.136703
     95 C30        -2.0920   -0.2430   -1.4580 c         1 MOL      0.483104
     96 O16        -2.1880    0.5940   -0.5300 o         1 MOL     -0.518003
     97 C31        -0.8340    0.2580   -3.6890 c3        1 MOL      0.119662
     98 C32         0.4710   -0.0070   -4.5360 c3        1 MOL      0.118710
     99 C33        -1.2340    1.7930   -3.6370 c3        1 MOL     -0.388164
    100 C34         1.9170    0.3360   -3.8420 c3        1 MOL     -0.187146
    101 H42        -0.4380   -2.2730   -3.2450 hn        1 MOL      0.235938
    102 H43         0.0820    0.0610   -1.6860 h1        1 MOL      0.119271
    103 H44        -1.6550   -0.2250   -4.2220 hc        1 MOL      0.012105
    104 H45         0.3710    0.4680   -5.5170 hc        1 MOL     -0.043196
    105 H46         0.3650   -1.0690   -4.7500 hc        1 MOL     -0.043196
    106 H47        -1.1690    2.2730   -4.6090 hc        1 MOL      0.109198
    107 H48        -2.2630    1.7530   -3.2700 hc        1 MOL      0.109198
    108 H49        -0.5550    2.3360   -2.9920 hc        1 MOL      0.109198
    109 H50         1.8960    1.4260   -3.7990 hc        1 MOL      0.052017
    110 H51         1.9400   -0.1750   -2.8770 hc        1 MOL      0.052017
    111 H52         2.7120    0.0120   -4.5220 hc        1 MOL      0.052017
    112 N10        -3.0310   -1.1530   -1.7100 n         1 MOL     -0.332455
    113 C35        -4.1660   -1.4590   -0.7790 c3        1 MOL     -0.049058
    114 C36        -5.4190   -1.8170   -1.5530 c         1 MOL      0.606841
    115 O17        -5.3040   -2.3640   -2.6470 o         1 MOL     -0.497525
    116 C37        -3.8560   -2.6180    0.1500 c3        1 MOL      0.472776
    117 C38        -3.4060   -3.8640   -0.5900 c3        1 MOL     -0.270616
    118 O18        -2.9740   -2.3380    1.2120 oh        1 MOL     -0.592503
    119 H53        -2.8800   -1.8210   -2.4490 hn        1 MOL      0.185125
    120 H54        -4.2220   -0.5660   -0.1520 h1        1 MOL      0.068751
    121 H55        -4.8020   -2.9030    0.6200 h1        1 MOL     -0.111473
    122 H56        -3.2090   -1.4860    1.5840 ho        1 MOL      0.382289
    123 H57        -2.4880   -3.6160   -1.1210 hc        1 MOL      0.077845
    124 H58        -3.2660   -4.5240    0.2680 hc        1 MOL      0.077845
    125 H59        -4.1590   -4.1890   -1.2920 hc        1 MOL      0.077845
    126 N11        -6.6220   -1.5450   -0.9930 n         1 MOL     -0.668509
    127 C39        -7.7980   -2.1340   -1.6110 c3        1 MOL      0.152020
    128 C40        -8.9830   -1.1560   -1.6180 c         1 MOL      0.662187
    129 O19        -9.5260   -1.0110   -2.6710 o         1 MOL     -0.549999
    130 C41        -8.1840   -3.4080   -0.8420 c3        1 MOL      0.319619
    131 C42        -9.2040   -4.1830   -1.5880 c3        1 MOL     -0.449940
    132 O20        -8.6750   -3.1550    0.4590 oh        1 MOL     -0.599286
    133 H60        -6.6510   -1.2140   -0.0410 hn        1 MOL      0.307059
    134 H61        -7.6460   -2.4400   -2.6430 h1        1 MOL      0.066146
    135 H62        -7.3090   -4.0500   -0.8420 h1        1 MOL      0.037485
    136 H63        -8.7490   -4.0530    0.7830 ho        1 MOL      0.357786
    137 H64        -8.9880   -3.9740   -2.6330 hc        1 MOL      0.115198
    138 H65        -9.1770   -5.2010   -1.2030 hc        1 MOL      0.115198
    139 H66       -10.1470   -3.6650   -1.5000 hc        1 MOL      0.115198
    140 N12        -9.3270   -0.4680   -0.5200 n         1 MOL     -0.401433
    141 C43       -10.1030    0.7470   -0.6210 c3        1 MOL     -0.050760
    142 C44        -9.5600    1.7690    0.3060 c         1 MOL      0.575490
    143 O21        -8.7990    1.4440    1.2670 o         1 MOL     -0.484691
    144 C45       -11.5550    0.5180   -0.5670 c3        1 MOL     -0.214645
    145 C46       -12.1790    0.4330    0.7920 c3        1 MOL     -0.179899
    146 C47       -11.6290   -0.5600    1.7810 c3        1 MOL      0.123627
    147 C48       -11.5940   -2.0430    1.2070 c3        1 MOL      0.005781
    148 N13       -11.2410   -3.0420    2.2450 n4        1 MOL     -0.333935
    149 H67        -8.7280   -0.6190    0.2740 hn        1 MOL      0.251109
    150 H68        -9.9810    1.1590   -1.6240 h1        1 MOL      0.097428
    151 H69       -11.7610   -0.3240   -1.2280 hc        1 MOL      0.108002
    152 H70       -12.0820    1.3840   -0.9740 hc        1 MOL      0.108002
    153 H71       -13.2330    0.1530    0.7680 hc        1 MOL      0.084419
    154 H72       -12.0850    1.4000    1.2790 hc        1 MOL      0.084419
    155 H73       -12.2460   -0.4730    2.6680 hc        1 MOL      0.010615
    156 H74       -10.6400   -0.1790    2.0330 hc        1 MOL      0.010615
    157 H75       -10.8720   -2.0860    0.3990 hx        1 MOL      0.064943
    158 H76       -12.5890   -2.3730    0.9120 hx        1 MOL      0.064943
    159 H77       -11.4050   -4.0190    2.0290 hn        1 MOL      0.271847
    160 H78       -10.2530   -3.0070    2.4350 hn        1 MOL      0.271847
    161 H79       -11.8060   -2.8600    3.0630 hn        1 MOL      0.271847
    162 N14        -9.9090    3.0820    0.0310 n         1 MOL     -0.544709
    163 C49        -9.9310    4.2090    1.0190 c3        1 MOL      0.133733
    164 C50        -8.5800    4.6230    1.4750 c         1 MOL      0.345032
    165 O22        -8.3110    4.7410    2.6340 o         1 MOL     -0.512196
    166 C51       -10.6670    5.4100    0.4240 c3        1 MOL     -0.035815
    167 C52       -11.0260    6.5260    1.4800 c3        1 MOL     -0.296865
    168 C53       -11.8680    7.6750    0.9110 c         1 MOL      0.695385
    169 O23       -11.4290    8.4560    0.0110 o         1 MOL     -0.636377
    170 O24       -13.0820    7.8330    1.2800 o         1 MOL     -0.636377
    171 H80       -10.5890    3.1120   -0.7100 hn        1 MOL      0.285088
    172 H81       -10.3870    3.7690    1.9100 h1        1 MOL      0.084907
    173 H82       -11.5980    5.0870   -0.0290 hc        1 MOL      0.059193
    174 H83       -10.0910    5.9040   -0.3580 hc        1 MOL      0.059193
    175 H84       -10.1150    7.0030    1.8530 hc        1 MOL      0.080413
    176 H85       -11.6150    6.0580    2.2660 hc        1 MOL      0.080413
    177 N15        -7.5570    4.8620    0.6400 n         1 MOL     -0.256307
    178 C54        -7.4780    4.8510   -0.8740 c3        1 MOL     -0.064952
    179 H86        -7.1500    3.8680   -1.2130 h1        1 MOL      0.056990
    180 H87        -8.4600    5.0690   -1.2910 h1        1 MOL      0.056990
    181 H88        -6.7650    5.6060   -1.2070 h1        1 MOL      0.056990
    182 H89        -6.7340    5.1040    1.1590 hn        1 MOL      0.264266
    183 Ca1         5.7280    4.6900    0.5500 Ca        1 MOL      1.750367
    184 O25         4.5370    5.7810    2.6660 oh        1 MOL     -0.867030
    185 H90         4.6010    5.5020    3.5860 ho        1 MOL      0.432040
    186 H91         4.1030    6.6320    2.7100 ho        1 MOL      0.432040
    187 O26         5.2370    3.7580   -1.9350 oh        1 MOL     -0.867030
    188 H92         4.7710    3.0600   -2.4070 ho        1 MOL      0.432040
    189 H93         6.0240    3.9080   -2.4440 ho        1 MOL      0.432040
    190 O27         3.3180    5.1130   -0.4180 oh        1 MOL     -0.867030
    191 H94         2.9190    4.2700   -0.6310 ho        1 MOL      0.432040
    192 H95         2.6270    5.7550   -0.5890 ho        1 MOL      0.432040
@<TRIPOS>BOND
     1    1    2 1   
     2    1    4 1   
     3    1    5 1   
     4    1    6 1   
     5    2    3 2   
     6    2    7 1   
     7    7    8 1   
     8    7   15 1   
     9    8    9 1   
    10    8   11 1   
    11    8   16 1   
    12    9   10 2   
    13    9   19 1   
    14   11   12 1   
    15   11   17 1   
    16   11   18 1   
    17   12   13 1   
    18   12   14 1   
    19   19   20 1   
    20   19   28 1   
    21   20   21 1   
    22   20   23 1   
    23   20   29 1   
    24   21   22 2   
    25   21   41 1   
    26   23   24 1   
    27   23   30 1   
    28   23   31 1   
    29   24   25 1   
    30   24   32 1   
    31   24   33 1   
    32   25   26 1   
    33   25   34 1   
    34   25   35 1   
    35   26   27 1   
    36   26   36 1   
    37   26   37 1   
    38   27   38 1   
    39   27   39 1   
    40   27   40 1   
    41   41   42 1   
    42   41   49 1   
    43   42   43 1   
    44   42   45 1   
    45   42   50 1   
    46   43   44 2   
    47   43   53 1   
    48   45   46 1   
    49   45   51 1   
    50   45   52 1   
    51   46   47 1   
    52   46   48 1   
    53   53   54 1   
    54   53   57 1   
    55   54   55 1   
    56   54   58 1   
    57   54   59 1   
    58   55   56 2   
    59   55   60 1   
    60   60   61 1   
    61   60   68 1   
    62   61   62 1   
    63   61   64 1   
    64   61   69 1   
    65   62   63 2   
    66   62   72 1   
    67   64   65 1   
    68   64   70 1   
    69   64   71 1   
    70   65   66 1   
    71   65   67 1   
    72   72   73 1   
    73   72   76 1   
    74   73   74 1   
    75   73   77 1   
    76   73   78 1   
    77   74   75 2   
    78   74   79 1   
    79   79   80 1   
    80   79   86 1   
    81   80   81 1   
    82   80   83 1   
    83   80   87 1   
    84   81   82 2   
    85   81   93 1   
    86   83   84 1   
    87   83   85 1   
    88   83   88 1   
    89   84   90 1   
    90   84   91 1   
    91   84   92 1   
    92   85   89 1   
    93   93   94 1   
    94   93  101 1   
    95   94   95 1   
    96   94   97 1   
    97   94  102 1   
    98   95   96 2   
    99   95  112 1   
   100   97   98 1   
   101   97   99 1   
   102   97  103 1   
   103   98  100 1   
   104   98  104 1   
   105   98  105 1   
   106   99  106 1   
   107   99  107 1   
   108   99  108 1   
   109  100  109 1   
   110  100  110 1   
   111  100  111 1   
   112  112  113 1   
   113  112  119 1   
   114  113  114 1   
   115  113  116 1   
   116  113  120 1   
   117  114  115 2   
   118  114  126 1   
   119  116  117 1   
   120  116  118 1   
   121  116  121 1   
   122  117  123 1   
   123  117  124 1   
   124  117  125 1   
   125  118  122 1   
   126  126  127 1   
   127  126  133 1   
   128  127  128 1   
   129  127  130 1   
   130  127  134 1   
   131  128  129 2   
   132  128  140 1   
   133  130  131 1   
   134  130  132 1   
   135  130  135 1   
   136  131  137 1   
   137  131  138 1   
   138  131  139 1   
   139  132  136 1   
   140  140  141 1   
   141  140  149 1   
   142  141  142 1   
   143  141  144 1   
   144  141  150 1   
   145  142  143 2   
   146  142  162 1   
   147  144  145 1   
   148  144  151 1   
   149  144  152 1   
   150  145  146 1   
   151  145  153 1   
   152  145  154 1   
   153  146  147 1   
   154  146  155 1   
   155  146  156 1   
   156  147  148 1   
   157  147  157 1   
   158  147  158 1   
   159  148  159 1   
   160  148  160 1   
   161  148  161 1   
   162  162  163 1   
   163  162  171 1   
   164  163  164 1   
   165  163  166 1   
   166  163  172 1   
   167  164  165 2   
   168  164  177 1   
   169  166  167 1   
   170  166  173 1   
   171  166  174 1   
   172  167  168 1   
   173  167  175 1   
   174  167  176 1   
   175  168  169 1   
   176  168  170 1   
   177  177  178 1   
   178  177  182 1   
   179  178  179 1   
   180  178  180 1   
   181  178  181 1   
   182  184  185 1   
   183  184  186 1   
   184  187  188 1   
   185  187  189 1   
   186  190  191 1   
   187  190  192 1   
@<TRIPOS>SUBSTRUCTURE
     1 MOL         1 TEMP              0 ****  ****    0 ROOT
