@<TRIPOS>MOLECULE
MOL
  182   178     1     0     0
SMALL
resp


@<TRIPOS>ATOM
      1 C1          1.1020   -3.3430    6.3320 c3        1 MOL     -0.483734
      2 C2          1.1890   -3.4580    4.7730 c         1 MOL      0.776862
      3 O1          0.2140   -3.5600    4.0350 o         1 MOL     -0.607493
      4 H1          0.1230   -3.6870    6.6670 hc        1 MOL      0.139636
      5 H2          1.8780   -3.9590    6.7860 hc        1 MOL      0.139636
      6 H3          1.2420   -2.3030    6.6280 hc        1 MOL      0.139636
      7 N1          2.4150   -3.5190    4.1890 n         1 MOL     -0.616101
      8 C3          2.5180   -3.3140    2.6780 c3        1 MOL      0.061265
      9 C4          2.4340   -4.5540    1.7990 c         1 MOL      0.496016
     10 O2          2.7650   -5.6640    2.2400 o         1 MOL     -0.536934
     11 C5          3.8130   -2.5300    2.3650 c3        1 MOL      0.006760
     12 C6          3.6890   -1.4920    1.2540 c         1 MOL      0.296517
     13 O3          4.2090   -0.3730    1.4060 o         1 MOL     -0.566857
     14 O4          3.1740   -1.8130    0.1680 o         1 MOL     -0.566857
     15 H4          3.3080   -3.5520    4.6700 hn        1 MOL      0.331951
     16 H5          1.7290   -2.5980    2.4200 h1        1 MOL     -0.014939
     17 H6          4.5820   -3.2760    2.1270 hc        1 MOL      0.048106
     18 H7          4.0650   -1.9810    3.2720 hc        1 MOL      0.048106
     19 N2          2.1740   -4.4030    0.4880 n         1 MOL     -0.219643
     20 C7          2.2460   -5.4940   -0.5130 c3        1 MOL     -0.163098
     21 C8          3.4220   -5.3580   -1.4860 c         1 MOL      0.596575
     22 O5          3.9100   -6.3730   -1.9600 o         1 MOL     -0.544940
     23 C9          0.9980   -5.4880   -1.2760 c3        1 MOL      0.137128
     24 C10        -0.2650   -5.9410   -0.5460 c3        1 MOL      0.018757
     25 C11        -1.5640   -5.8010   -1.3840 c3        1 MOL      0.057648
     26 C12        -1.6430   -6.8410   -2.5220 c3        1 MOL     -0.106555
     27 N3         -1.9690   -8.1850   -1.9900 n4        1 MOL     -0.127031
     28 H8          2.0190   -3.4570    0.1720 hn        1 MOL      0.258542
     29 H9          2.3990   -6.3840    0.0990 h1        1 MOL      0.116474
     30 H10         1.0450   -6.1150   -2.1680 hc        1 MOL     -0.037633
     31 H11         0.8780   -4.4770   -1.6780 hc        1 MOL     -0.037633
     32 H12        -0.4660   -5.3120    0.3160 hc        1 MOL     -0.011494
     33 H13        -0.0650   -6.9690   -0.2460 hc        1 MOL     -0.011494
     34 H14        -1.6390   -4.7820   -1.7650 hc        1 MOL      0.030733
     35 H15        -2.3520   -6.0050   -0.6590 hc        1 MOL      0.030733
     36 H16        -0.7110   -6.9370   -3.0730 hx        1 MOL      0.105150
     37 H17        -2.4570   -6.4760   -3.1500 hx        1 MOL      0.105150
     38 H18        -2.2200   -8.7410   -2.7930 hn        1 MOL      0.229299
     39 H19        -1.2670   -8.7530   -1.5430 hn        1 MOL      0.229299
     40 H20        -2.8360   -8.2560   -1.4760 hn        1 MOL      0.229299
     41 N4          3.8990   -4.1070   -1.7460 n         1 MOL     -0.434762
     42 C13         5.1090   -3.7830   -2.4830 c3        1 MOL      0.254194
     43 C14         6.3100   -3.5330   -1.6200 c         1 MOL      0.366532
     44 O6          7.4110   -4.1290   -1.8420 o         1 MOL     -0.550415
     45 C15         4.8920   -2.6410   -3.4660 c3        1 MOL     -0.462580
     46 C16         4.0820   -1.4530   -2.7990 c         1 MOL      0.879544
     47 O7          4.6540   -0.6850   -1.9860 o         1 MOL     -0.757806
     48 O8          2.9440   -1.2210   -3.1830 o         1 MOL     -0.757806
     49 H21         3.5340   -3.3420   -1.1870 hn        1 MOL      0.150471
     50 H22         5.4360   -4.6640   -3.0400 h1        1 MOL      0.058083
     51 H23         4.3080   -3.0240   -4.3020 hc        1 MOL      0.124697
     52 H24         5.8570   -2.3770   -3.8850 hc        1 MOL      0.124697
     53 N5          6.1710   -2.7790   -0.5390 n         1 MOL     -0.029148
     54 C17         7.3090   -2.5650    0.3710 c3        1 MOL     -0.181263
     55 C18         7.6640   -1.0790    0.4240 c         1 MOL      0.578353
     56 O9          8.6070   -0.7880    1.1440 o         1 MOL     -0.589443
     57 H25         5.2760   -2.3570   -0.3330 hn        1 MOL      0.064194
     58 H26         8.2880   -2.9540    0.0580 h1        1 MOL      0.112057
     59 H27         6.9790   -2.8160    1.3820 h1        1 MOL      0.112057
     60 N6          6.9660   -0.1130   -0.1760 n         1 MOL     -0.133719
     61 C19         7.4220    1.2720   -0.1930 c3        1 MOL      0.125581
     62 C20         6.2100    2.2640   -0.1360 c         1 MOL      0.273062
     63 O10         5.0270    1.9680   -0.3400 o         1 MOL     -0.278223
     64 C21         8.2300    1.5430   -1.5000 c3        1 MOL     -0.408815
     65 C22         7.5060    1.3430   -2.8060 c         1 MOL      0.731492
     66 N7          7.8720    0.3130   -3.5380 n         1 MOL     -0.768218
     67 O11         6.7350    2.1700   -3.3120 o         1 MOL     -0.602666
     68 H28         6.1540   -0.3440   -0.7150 hn        1 MOL      0.020473
     69 H29         8.0600    1.4580    0.6660 h1        1 MOL      0.068278
     70 H30         9.0200    0.8040   -1.3400 hc        1 MOL      0.118400
     71 H31         8.6050    2.5690   -1.5340 hc        1 MOL      0.118400
     72 H32         8.4570   -0.4120   -3.1560 hn        1 MOL      0.369986
     73 H33         7.5720    0.3950   -4.4980 hn        1 MOL      0.369986
     74 N8          6.5460    3.5290    0.2200 n         1 MOL     -0.283475
     75 C23         5.6570    4.7100    0.1890 c3        1 MOL     -0.255012
     76 C24         4.3740    4.5640    0.9680 c         1 MOL      0.533514
     77 O12         4.4290    4.1590    2.1750 o         1 MOL     -0.463202
     78 H34         7.5090    3.6810    0.4940 hn        1 MOL      0.294414
     79 H35         5.3970    5.0190   -0.8290 h1        1 MOL      0.126608
     80 H36         6.1840    5.4770    0.7380 h1        1 MOL      0.126608
     81 N9          3.2070    5.0850    0.4620 n         1 MOL     -0.366239
     82 C25         1.8320    4.8850    0.9360 c3        1 MOL     -0.287706
     83 C26         1.5530    3.3960    1.2100 c         1 MOL      0.750415
     84 O13         2.1570    2.5100    0.5880 o         1 MOL     -0.670153
     85 C27         0.7950    5.4320   -0.0990 c3        1 MOL     -0.044299
     86 C28         0.8930    6.8920   -0.4440 ca        1 MOL     -0.036690
     87 C29         0.9390    7.8230    0.5850 ca        1 MOL     -0.090641
     88 C30         1.0020    7.3730   -1.7790 ca        1 MOL     -0.090641
     89 C31         1.1750    9.2120    0.3320 ca        1 MOL     -0.273270
     90 C32         1.3040    8.7370   -2.0270 ca        1 MOL     -0.273270
     91 C33         1.3870    9.6400   -0.9530 ca        1 MOL      0.357045
     92 O14         1.6800   10.9230   -1.2830 oh        1 MOL     -0.482094
     93 H37         3.2860    5.3160   -0.5100 hn        1 MOL      0.272643
     94 H38         1.6430    5.4810    1.8260 h1        1 MOL      0.164700
     95 H39        -0.2120    5.1200    0.1690 hc        1 MOL      0.063905
     96 H40         0.8010    4.7930   -0.9830 hc        1 MOL      0.063905
     97 H41         0.7770    7.4930    1.5990 ha        1 MOL      0.108391
     98 H42         0.9480    6.5980   -2.5210 ha        1 MOL      0.108391
     99 H43         1.2360    9.8700    1.1890 ha        1 MOL      0.159160
    100 H44         1.4500    9.0630   -3.0530 ha        1 MOL      0.159160
    101 H45         1.3390   11.5540   -0.6450 ho        1 MOL      0.368360
    102 N10         0.6990    3.0680    2.1850 n         1 MOL     -0.596493
    103 C34         0.2220    1.7330    2.6630 c3        1 MOL      0.062916
    104 C35        -0.1110    0.7330    1.5130 c         1 MOL      0.380394
    105 O15         0.7890    0.3740    0.7130 o         1 MOL     -0.298237
    106 C36         1.3370    1.0140    3.5440 c3        1 MOL      0.130591
    107 C37         0.8390   -0.1850    4.3660 c3        1 MOL     -0.069448
    108 C38         1.9990    1.9600    4.4860 c3        1 MOL     -0.296330
    109 C39        -0.1780    0.0670    5.4620 c3        1 MOL     -0.406302
    110 H46         0.2990    3.8640    2.6620 hn        1 MOL      0.313475
    111 H47        -0.7040    1.8720    3.2240 h1        1 MOL      0.081645
    112 H48         2.1120    0.7190    2.8410 hc        1 MOL      0.092599
    113 H49         1.7050   -0.6540    4.8340 hc        1 MOL      0.068633
    114 H50         0.4740   -0.9240    3.6570 hc        1 MOL      0.068633
    115 H51         1.3180    2.3640    5.2310 hc        1 MOL      0.078248
    116 H52         2.6600    1.4830    5.2180 hc        1 MOL      0.078248
    117 H53         2.6340    2.6970    3.9880 hc        1 MOL      0.078248
    118 H54         0.2100    0.7140    6.2550 hc        1 MOL      0.105307
    119 H55        -1.1400    0.4840    5.1580 hc        1 MOL      0.105307
    120 H56        -0.2890   -0.8650    6.0160 hc        1 MOL      0.105307
    121 N11        -1.3180    0.1700    1.4110 n         1 MOL     -0.469102
    122 C40        -1.7500   -0.8660    0.4070 c3        1 MOL      0.022309
    123 C41        -3.1840   -0.8360   -0.0070 c         1 MOL      0.607692
    124 O16        -3.4890   -1.4630   -1.0570 o         1 MOL     -0.581122
    125 C42        -1.3590   -2.3050    0.8720 c3        1 MOL      0.613783
    126 O17        -1.8170   -2.5480    2.1910 oh        1 MOL     -0.695634
    127 H57        -1.9880    0.3950    2.1300 hn        1 MOL      0.272721
    128 H58        -1.0850   -0.5660   -0.4040 h1        1 MOL      0.025339
    129 H59        -0.2840   -2.4060    0.7140 h1        1 MOL     -0.135881
    130 H60        -1.8630   -3.0140    0.2050 h1        1 MOL     -0.135881
    131 H61        -1.1610   -3.1040    2.6130 ho        1 MOL      0.430348
    132 N12        -4.0480   -0.1160    0.6960 n         1 MOL     -0.612894
    133 C43        -5.5290   -0.0290    0.4660 c3        1 MOL      0.331828
    134 C44        -5.7550    0.6550   -0.9070 c         1 MOL      0.591126
    135 O18        -4.8940    1.4180   -1.3620 o         1 MOL     -0.555784
    136 C45        -6.1830    0.7420    1.6050 c3        1 MOL     -0.477660
    137 H62        -3.7050    0.3600    1.5210 hn        1 MOL      0.314567
    138 H63        -6.0250   -0.9980    0.4730 h1        1 MOL      0.032537
    139 H64        -7.2520    0.5330    1.6150 hc        1 MOL      0.140854
    140 H65        -5.8490    0.3440    2.5680 hc        1 MOL      0.140854
    141 H66        -6.0410    1.8070    1.4990 hc        1 MOL      0.140854
    142 N13        -6.9230    0.4750   -1.5650 n         1 MOL     -0.611934
    143 C46        -8.1640   -0.2550   -1.2060 c3        1 MOL      0.276653
    144 C47        -9.3020    0.2840   -2.1510 c         1 MOL      0.438582
    145 O19        -9.2130    0.6370   -3.3140 o         1 MOL     -0.538582
    146 C48        -8.0710   -1.8120   -1.4490 c3        1 MOL     -0.204036
    147 H67        -6.8150    0.8620   -2.4900 hn        1 MOL      0.321645
    148 H68        -8.4310   -0.0440   -0.1720 h1        1 MOL     -0.033420
    149 H69        -8.2330   -1.9790   -2.5160 hc        1 MOL      0.066402
    150 H70        -7.1600   -2.3330   -1.1800 hc        1 MOL      0.066402
    151 H71        -8.9760   -2.2290   -0.9950 hc        1 MOL      0.066402
    152 N14       -10.4900    0.5260   -1.6440 n         1 MOL     -0.358924
    153 C49       -10.9210    0.2510   -0.2480 c3        1 MOL     -0.153518
    154 C50       -10.4740    1.3110    0.8140 c         1 MOL      0.459538
    155 O20       -10.3200    0.9670    1.9860 o         1 MOL     -0.514739
    156 C51       -12.4880    0.1610   -0.1840 c3        1 MOL      0.123336
    157 C52       -13.1850   -0.7010   -1.2440 c3        1 MOL     -0.112547
    158 C53       -14.6170   -0.9720   -0.7900 c         1 MOL      0.658962
    159 O21       -15.4710   -0.2320   -1.2940 o         1 MOL     -0.652915
    160 O22       -14.8070   -1.9390    0.0020 o         1 MOL     -0.652915
    161 H72       -11.1440    0.9290   -2.2940 hn        1 MOL      0.313191
    162 H73       -10.6230   -0.7510    0.0470 h1        1 MOL      0.134322
    163 H74       -12.7910    1.2010   -0.2100 hc        1 MOL      0.000372
    164 H75       -12.7080   -0.3080    0.7820 hc        1 MOL      0.000372
    165 H76       -12.6350   -1.6320   -1.3140 hc        1 MOL     -0.007526
    166 H77       -13.0650   -0.1750   -2.1950 hc        1 MOL     -0.007526
    167 N15       -10.0540    2.5560    0.4090 n         1 MOL     -0.334778
    168 C54        -9.2990    3.6280    1.2880 c3        1 MOL     -0.129991
    169 H78        -9.4430    3.3990    2.3430 h1        1 MOL      0.091164
    170 H79        -8.2350    3.6060    1.0540 h1        1 MOL      0.091164
    171 H80        -9.6980    4.6200    1.0740 h1        1 MOL      0.091164
    172 H81       -10.1480    2.7930   -0.5700 hn        1 MOL      0.251261
    173 Ca1         2.6150    0.4830   -1.1450 Ca        1 MOL      1.737278
    174 O23         0.5930    1.5760   -2.3560 oh        1 MOL     -0.848933
    175 H82         0.4460    1.7180   -3.2850 ho        1 MOL      0.417550
    176 H83        -0.1360    2.0390   -1.9260 ho        1 MOL      0.417550
    177 O24         0.6020   -1.4780   -1.8670 oh        1 MOL     -0.848933
    178 H84        -0.2580   -1.7280   -2.1980 ho        1 MOL      0.417550
    179 H85         1.1610   -1.4680   -2.6470 ho        1 MOL      0.417550
    180 O25         3.4930    2.4660   -2.7210 oh        1 MOL     -0.848933
    181 H86         3.5290    3.4200   -2.6470 ho        1 MOL      0.417550
    182 H87         4.3370    2.2200   -3.0850 ho        1 MOL      0.417550
@<TRIPOS>BOND
     1    1    2 1   
     2    1    4 1   
     3    1    5 1   
     4    1    6 1   
     5    2    3 2   
     6    2    7 1   
     7    7    8 1   
     8    7   15 1   
     9    8    9 1   
    10    8   11 1   
    11    8   16 1   
    12    9   10 2   
    13    9   19 1   
    14   11   12 1   
    15   11   17 1   
    16   11   18 1   
    17   12   13 1   
    18   12   14 1   
    19   19   20 1   
    20   19   28 1   
    21   20   21 1   
    22   20   23 1   
    23   20   29 1   
    24   21   22 2   
    25   21   41 1   
    26   23   24 1   
    27   23   30 1   
    28   23   31 1   
    29   24   25 1   
    30   24   32 1   
    31   24   33 1   
    32   25   26 1   
    33   25   34 1   
    34   25   35 1   
    35   26   27 1   
    36   26   36 1   
    37   26   37 1   
    38   27   38 1   
    39   27   39 1   
    40   27   40 1   
    41   41   42 1   
    42   41   49 1   
    43   42   43 1   
    44   42   45 1   
    45   42   50 1   
    46   43   44 2   
    47   43   53 1   
    48   45   46 1   
    49   45   51 1   
    50   45   52 1   
    51   46   47 1   
    52   46   48 1   
    53   53   54 1   
    54   53   57 1   
    55   54   55 1   
    56   54   58 1   
    57   54   59 1   
    58   55   56 2   
    59   55   60 1   
    60   60   61 1   
    61   60   68 1   
    62   61   62 1   
    63   61   64 1   
    64   61   69 1   
    65   62   63 2   
    66   62   74 1   
    67   64   65 1   
    68   64   70 1   
    69   64   71 1   
    70   65   66 1   
    71   65   67 2   
    72   66   72 1   
    73   66   73 1   
    74   74   75 1   
    75   74   78 1   
    76   75   76 1   
    77   75   79 1   
    78   75   80 1   
    79   76   77 2   
    80   76   81 1   
    81   81   82 1   
    82   81   93 1   
    83   82   83 1   
    84   82   85 1   
    85   82   94 1   
    86   83   84 2   
    87   83  102 1   
    88   85   86 1   
    89   85   95 1   
    90   85   96 1   
    91   86   87 ar  
    92   86   88 ar  
    93   87   89 ar  
    94   87   97 1   
    95   88   90 ar  
    96   88   98 1   
    97   89   91 ar  
    98   89   99 1   
    99   90   91 ar  
   100   90  100 1   
   101   91   92 1   
   102   92  101 1   
   103  102  103 1   
   104  102  110 1   
   105  103  104 1   
   106  103  106 1   
   107  103  111 1   
   108  104  105 2   
   109  104  121 1   
   110  106  107 1   
   111  106  108 1   
   112  106  112 1   
   113  107  109 1   
   114  107  113 1   
   115  107  114 1   
   116  108  115 1   
   117  108  116 1   
   118  108  117 1   
   119  109  118 1   
   120  109  119 1   
   121  109  120 1   
   122  121  122 1   
   123  121  127 1   
   124  122  123 1   
   125  122  125 1   
   126  122  128 1   
   127  123  124 2   
   128  123  132 1   
   129  125  126 1   
   130  125  129 1   
   131  125  130 1   
   132  126  131 1   
   133  132  133 1   
   134  132  137 1   
   135  133  134 1   
   136  133  136 1   
   137  133  138 1   
   138  134  135 2   
   139  134  142 1   
   140  136  139 1   
   141  136  140 1   
   142  136  141 1   
   143  142  143 1   
   144  142  147 1   
   145  143  144 1   
   146  143  146 1   
   147  143  148 1   
   148  144  145 2   
   149  144  152 1   
   150  146  149 1   
   151  146  150 1   
   152  146  151 1   
   153  152  153 1   
   154  152  161 1   
   155  153  154 1   
   156  153  156 1   
   157  153  162 1   
   158  154  155 2   
   159  154  167 1   
   160  156  157 1   
   161  156  163 1   
   162  156  164 1   
   163  157  158 1   
   164  157  165 1   
   165  157  166 1   
   166  158  159 1   
   167  158  160 1   
   168  167  168 1   
   169  167  172 1   
   170  168  169 1   
   171  168  170 1   
   172  168  171 1   
   173  174  175 1   
   174  174  176 1   
   175  177  178 1   
   176  177  179 1   
   177  180  181 1   
   178  180  182 1   
@<TRIPOS>SUBSTRUCTURE
     1 MOL         1 TEMP              0 ****  ****    0 ROOT
