@<TRIPOS>MOLECULE
MOL
  178   175     1     0     0
SMALL
resp


@<TRIPOS>ATOM
      1 C1          4.3690   -2.2500    2.9410 c3        1 MOL     -0.373563
      2 C2          5.6130   -1.4260    2.5090 c         1 MOL      0.751727
      3 O1          5.3960   -0.4230    1.8350 o         1 MOL     -0.572391
      4 H1          4.0930   -1.9820    3.9600 hc        1 MOL      0.105930
      5 H2          3.5380   -2.0320    2.2700 hc        1 MOL      0.105930
      6 H3          4.6040   -3.3130    2.8970 hc        1 MOL      0.105930
      7 N1          6.8420   -1.8480    2.8810 n         1 MOL     -0.734550
      8 C3          8.0570   -1.0000    2.6180 c3        1 MOL      0.411212
      9 C4          8.6370   -1.4470    1.2370 c         1 MOL      0.527172
     10 O2          8.6470   -2.5970    0.8840 o         1 MOL     -0.545731
     11 C5          8.9880   -1.2370    3.8370 c3        1 MOL     -0.246788
     12 C6         10.2740   -0.3010    3.7300 c         1 MOL      0.690466
     13 O3         11.1420   -0.4660    4.5600 o         1 MOL     -0.708442
     14 O4         10.3870    0.4410    2.7360 o         1 MOL     -0.708442
     15 H4          6.8970   -2.5910    3.5640 hn        1 MOL      0.327464
     16 H5          7.8820    0.0730    2.6130 h1        1 MOL     -0.033724
     17 H6          9.2490   -2.2950    3.8320 hc        1 MOL      0.026900
     18 H7          8.4220   -1.0450    4.7480 hc        1 MOL      0.026900
     19 N2          8.8230   -0.4500    0.3690 n         1 MOL     -0.490370
     20 C7          8.8910   -0.7500   -1.0820 c3        1 MOL      0.272427
     21 C8          7.5560   -1.1630   -1.6780 c         1 MOL      0.392658
     22 O5          7.5190   -1.5810   -2.8760 o         1 MOL     -0.557569
     23 C9          9.5570    0.3910   -1.8800 c3        1 MOL     -0.370626
     24 H8          9.1570    0.4710    0.6200 hn        1 MOL      0.283720
     25 H9          9.4850   -1.6570   -1.2190 h1        1 MOL      0.045073
     26 H10         8.8200    1.1910   -1.9220 hc        1 MOL      0.091403
     27 H11        10.3990    0.8040   -1.3240 hc        1 MOL      0.091403
     28 H12         9.8700    0.0070   -2.8530 hc        1 MOL      0.091403
     29 N3          6.4820   -0.9860   -0.9230 n         1 MOL     -0.222824
     30 C10         5.1160   -1.3870   -1.3870 c3        1 MOL      0.117475
     31 C11         4.6690   -0.8460   -2.7870 c         1 MOL      0.395885
     32 O6          3.8760   -1.4670   -3.4470 o         1 MOL     -0.395279
     33 C12         5.0340   -2.9500   -1.1890 c3        1 MOL     -0.246161
     34 C13         3.6120   -3.4550   -1.0960 c         1 MOL      0.694645
     35 O7          3.2270   -4.6210   -1.1390 o         1 MOL     -0.747356
     36 O8          2.6180   -2.6930   -0.8340 o         1 MOL     -0.747356
     37 H13         6.6340   -0.7560    0.0530 hn        1 MOL      0.067122
     38 H14         4.3740   -1.0600   -0.6560 h1        1 MOL      0.060726
     39 H15         5.5510   -3.2450   -0.2690 hc        1 MOL      0.094830
     40 H16         5.6970   -3.3980   -1.9360 hc        1 MOL      0.094830
     41 N4          5.2610    0.3390   -3.2740 n         1 MOL     -0.272666
     42 C14         4.8490    0.7610   -4.6190 c3        1 MOL     -0.176099
     43 C15         3.4140    1.4210   -4.7270 c         1 MOL      0.417391
     44 O9          2.8530    1.3530   -5.8240 o         1 MOL     -0.533168
     45 H17         5.8270    0.9190   -2.6690 hn        1 MOL      0.226297
     46 H18         4.9130   -0.0530   -5.3460 h1        1 MOL      0.107732
     47 H19         5.6140    1.4570   -4.9470 h1        1 MOL      0.107732
     48 N5          2.9190    2.0400   -3.7060 n         1 MOL     -0.202310
     49 C16         1.6620    2.7910   -3.7810 c3        1 MOL     -0.119971
     50 C17         1.6720    3.8800   -2.7250 c         1 MOL      0.519496
     51 O10         2.1680    3.7200   -1.6380 o         1 MOL     -0.462661
     52 C18         0.4650    1.8740   -3.5830 c3        1 MOL     -0.180655
     53 C19        -0.8440    2.5520   -3.5750 c         1 MOL      0.585073
     54 N6         -1.2820    2.9450   -2.4030 n         1 MOL     -0.684523
     55 O11        -1.4920    2.7100   -4.5990 o         1 MOL     -0.574010
     56 H20         3.5110    2.0430   -2.8810 hn        1 MOL      0.190605
     57 H21         1.5770    3.2100   -4.7870 h1        1 MOL      0.074880
     58 H22         0.6520    1.4420   -2.6040 hc        1 MOL      0.132267
     59 H23         0.4610    1.1230   -4.3820 hc        1 MOL      0.132267
     60 H24        -0.9540    2.5480   -1.5310 hn        1 MOL      0.323597
     61 H25        -2.1550    3.4610   -2.3350 hn        1 MOL      0.323597
     62 N7          1.2160    5.0570   -3.0860 n         1 MOL     -0.370386
     63 C20         1.1750    6.2580   -2.3200 c3        1 MOL     -0.245118
     64 C21         0.1250    6.2360   -1.1790 c         1 MOL      0.684458
     65 O12        -0.9400    5.6990   -1.3160 o         1 MOL     -0.506566
     66 H26         0.7820    5.1740   -3.9870 hn        1 MOL      0.319856
     67 H27         0.9930    7.1420   -2.9380 h1        1 MOL      0.109833
     68 H28         2.1280    6.3550   -1.8010 h1        1 MOL      0.109833
     69 N8          0.3590    6.9050   -0.0230 n         1 MOL     -0.532151
     70 C22        -0.6220    7.2010    1.0300 c3        1 MOL     -0.139270
     71 C23        -1.2480    6.0680    1.7530 c         1 MOL      0.450657
     72 O13        -2.2920    6.2240    2.3690 o         1 MOL     -0.592948
     73 C24        -0.0590    8.2240    2.0810 c3        1 MOL      0.441441
     74 C25         0.9950    7.7000    3.0570 c3        1 MOL     -0.291919
     75 O14         0.5640    9.3730    1.4600 oh        1 MOL     -0.643775
     76 H29         1.3080    7.2490    0.0700 hn        1 MOL      0.266778
     77 H30        -1.4730    7.7030    0.5620 h1        1 MOL      0.126863
     78 H31        -0.9030    8.6020    2.6410 h1        1 MOL      0.049211
     79 H32         1.4460    9.1320    1.1540 ho        1 MOL      0.377384
     80 H33         1.9710    7.5810    2.6030 hc        1 MOL      0.064083
     81 H34         1.1020    8.2700    3.9830 hc        1 MOL      0.064083
     82 H35         0.8080    6.6610    3.3280 hc        1 MOL      0.064083
     83 N9         -0.6500    4.9190    1.7860 n         1 MOL      0.025543
     84 C26        -1.3760    3.7000    2.1290 c3        1 MOL     -0.332771
     85 C27        -1.1650    2.4480    1.1750 c         1 MOL      0.534835
     86 O15        -0.1070    2.4060    0.5510 o         1 MOL     -0.470569
     87 C28        -1.1750    3.3470    3.6120 c3        1 MOL      0.304967
     88 C29         0.3470    3.1700    3.8330 c3        1 MOL      0.021304
     89 C30        -1.7920    4.3110    4.6490 c3        1 MOL     -0.209194
     90 C31         0.6470    2.2980    5.0770 c3        1 MOL     -0.246303
     91 H36         0.2790    4.8210    1.4030 hn        1 MOL      0.127206
     92 H37        -2.4290    3.9460    1.9960 h1        1 MOL      0.130657
     93 H38        -1.7250    2.4200    3.7690 hc        1 MOL     -0.052414
     94 H39         0.7920    4.1550    3.8880 hc        1 MOL      0.031243
     95 H40         0.8030    2.5960    3.0250 hc        1 MOL      0.031243
     96 H41        -1.5570    3.9350    5.6410 hc        1 MOL      0.038590
     97 H42        -1.3160    5.2840    4.5720 hc        1 MOL      0.038590
     98 H43        -2.8820    4.2390    4.5590 hc        1 MOL      0.038590
     99 H44         0.0760    1.3810    4.9240 hc        1 MOL      0.053699
    100 H45         1.7190    2.1340    4.9970 hc        1 MOL      0.053699
    101 H46         0.3800    2.8200    5.9970 hc        1 MOL      0.053699
    102 N10        -2.1930    1.6160    0.9720 n         1 MOL     -0.538381
    103 C32        -2.1380    0.3250    0.2080 c3        1 MOL      0.174202
    104 C33        -3.4690   -0.1500   -0.2830 c         1 MOL      0.569119
    105 O16        -3.7240   -1.2790   -0.6450 o         1 MOL     -0.503747
    106 C34        -1.5130   -0.7640    1.1400 c3        1 MOL     -0.180034
    107 C35        -0.8980   -1.9660    0.4460 c         1 MOL      0.789527
    108 O17        -0.6130   -2.0140   -0.7720 o         1 MOL     -0.783640
    109 O18        -0.6430   -2.9860    1.0990 o         1 MOL     -0.783640
    110 H47        -3.0470    1.8030    1.4740 hn        1 MOL      0.283273
    111 H48        -1.5480    0.4750   -0.6880 h1        1 MOL      0.040567
    112 H49        -2.3670   -1.1610    1.7020 hc        1 MOL      0.065343
    113 H50        -0.7560   -0.3220    1.7840 hc        1 MOL      0.065343
    114 N11        -4.3680    0.7990   -0.2820 n         1 MOL     -0.447829
    115 C36        -5.8060    0.5950   -0.5820 c3        1 MOL      0.153992
    116 C37        -6.4240   -0.4580    0.3960 c         1 MOL      0.330893
    117 O19        -6.0150   -0.4780    1.5900 o         1 MOL     -0.521198
    118 C38        -6.4680    1.9560   -0.4230 c3        1 MOL     -0.180252
    119 C39        -7.8960    1.8870   -0.8320 ca        1 MOL      0.048703
    120 C40        -8.1740    2.4120   -2.1150 ca        1 MOL     -0.166638
    121 C41        -8.8720    1.2160   -0.0740 ca        1 MOL     -0.166638
    122 C42        -9.4450    2.0670   -2.7210 ca        1 MOL     -0.127103
    123 C43       -10.1720    0.9540   -0.6310 ca        1 MOL     -0.127103
    124 C44       -10.4360    1.3930   -1.9360 ca        1 MOL     -0.092521
    125 H51        -4.1260    1.7580   -0.0790 hn        1 MOL      0.215247
    126 H52        -5.8130    0.3100   -1.6440 h1        1 MOL      0.042980
    127 H53        -6.0020    2.7070   -1.0670 hc        1 MOL      0.100308
    128 H54        -6.4380    2.3750    0.5800 hc        1 MOL      0.100308
    129 H55        -7.3860    2.9850   -2.5740 ha        1 MOL      0.134460
    130 H56        -8.6190    0.8360    0.9010 ha        1 MOL      0.134460
    131 H57        -9.7100    2.5250   -3.6620 ha        1 MOL      0.118418
    132 H58       -10.9360    0.3190   -0.2130 ha        1 MOL      0.118418
    133 H59       -11.4200    1.3290   -2.3510 ha        1 MOL      0.097196
    134 N12        -7.2130   -1.4760   -0.0300 n         1 MOL     -0.040736
    135 C45        -7.9030   -2.4900    0.8060 c3        1 MOL     -0.056329
    136 C46        -6.9260   -3.3870    1.5600 c         1 MOL      0.313332
    137 O20        -7.3520   -3.8920    2.6010 o         1 MOL     -0.523036
    138 C47        -8.7410   -3.3130   -0.1900 c3        1 MOL      0.257920
    139 C48        -8.9590   -2.3930   -1.4020 c3        1 MOL     -0.337208
    140 C49        -7.7010   -1.6130   -1.4380 c3        1 MOL      0.094717
    141 H60        -8.6600   -1.9540    1.3810 h1        1 MOL      0.083952
    142 H61        -8.2510   -4.2460   -0.4740 hc        1 MOL     -0.021065
    143 H62        -9.6760   -3.6680    0.2260 hc        1 MOL     -0.021065
    144 H63        -9.0140   -3.1230   -2.1990 hc        1 MOL      0.084555
    145 H64        -9.9060   -1.8770   -1.2250 hc        1 MOL      0.084555
    146 H65        -6.9910   -2.0490   -2.1430 h1        1 MOL      0.039876
    147 H66        -8.0370   -0.6340   -1.7780 h1        1 MOL      0.039876
    148 N13        -5.6440   -3.5480    1.1340 n         1 MOL     -0.248228
    149 C50        -4.5910   -4.3690    1.8090 c3        1 MOL     -0.022328
    150 C51        -4.1420   -3.9130    3.1590 c         1 MOL      0.476897
    151 O21        -3.6900   -4.7890    3.8330 o         1 MOL     -0.555438
    152 C52        -3.3220   -4.4460    0.9280 c3        1 MOL      0.121348
    153 C53        -3.3320   -5.5920   -0.0100 c3        1 MOL     -0.193290
    154 C54        -2.0460   -5.6040   -0.8290 c         1 MOL      0.670373
    155 O22        -1.1030   -6.3110   -0.4460 o         1 MOL     -0.706775
    156 O23        -1.8930   -4.9160   -1.8640 o         1 MOL     -0.706775
    157 H67        -5.3250   -2.9210    0.4070 hn        1 MOL      0.161563
    158 H68        -4.9110   -5.4010    1.9300 h1        1 MOL      0.100652
    159 H69        -2.3740   -4.4840    1.4650 hc        1 MOL      0.015978
    160 H70        -3.2200   -3.5540    0.3080 hc        1 MOL      0.015978
    161 H71        -4.1470   -5.4490   -0.7170 hc        1 MOL      0.010772
    162 H72        -3.4760   -6.5160    0.5610 hc        1 MOL      0.010772
    163 N14        -4.4140   -2.6980    3.5970 n         1 MOL     -0.186532
    164 C55        -4.0720   -2.1630    4.8970 c3        1 MOL     -0.346454
    165 H73        -4.1190   -2.9580    5.6410 h1        1 MOL      0.125294
    166 H74        -3.0620   -1.7530    4.8680 h1        1 MOL      0.125294
    167 H75        -4.7760   -1.3750    5.1630 h1        1 MOL      0.125294
    168 H76        -4.7510   -2.1130    2.8480 hn        1 MOL      0.264532
    169 Ca1         0.6350   -4.4290   -0.9770 Ca        1 MOL      1.740288
    170 O24         0.3290   -3.9630   -3.5000 oh        1 MOL     -0.780009
    171 H77        -0.5100   -4.2750   -3.8470 ho        1 MOL      0.381910
    172 H78         0.5450   -3.2000   -4.0370 ho        1 MOL      0.381910
    173 O25         1.6280   -5.9670    1.2100 oh        1 MOL     -0.780009
    174 H79         2.0190   -5.4740    1.9360 ho        1 MOL      0.381910
    175 H80         1.1540   -6.6800    1.6230 ho        1 MOL      0.381910
    176 O26         1.4860   -6.7070   -2.1940 oh        1 MOL     -0.780009
    177 H81         1.3060   -7.0920   -3.0460 ho        1 MOL      0.381910
    178 H82         2.4410   -6.5910   -2.1820 ho        1 MOL      0.381910
@<TRIPOS>BOND
     1    1    2 1   
     2    1    4 1   
     3    1    5 1   
     4    1    6 1   
     5    2    3 2   
     6    2    7 1   
     7    7    8 1   
     8    7   15 1   
     9    8    9 1   
    10    8   11 1   
    11    8   16 1   
    12    9   10 2   
    13    9   19 1   
    14   11   12 1   
    15   11   17 1   
    16   11   18 1   
    17   12   13 1   
    18   12   14 1   
    19   19   20 1   
    20   19   24 1   
    21   20   21 1   
    22   20   23 1   
    23   20   25 1   
    24   21   22 2   
    25   21   29 1   
    26   23   26 1   
    27   23   27 1   
    28   23   28 1   
    29   29   30 1   
    30   29   37 1   
    31   30   31 1   
    32   30   33 1   
    33   30   38 1   
    34   31   32 2   
    35   31   41 1   
    36   33   34 1   
    37   33   39 1   
    38   33   40 1   
    39   34   35 1   
    40   34   36 1   
    41   41   42 1   
    42   41   45 1   
    43   42   43 1   
    44   42   46 1   
    45   42   47 1   
    46   43   44 2   
    47   43   48 1   
    48   48   49 1   
    49   48   56 1   
    50   49   50 1   
    51   49   52 1   
    52   49   57 1   
    53   50   51 2   
    54   50   62 1   
    55   52   53 1   
    56   52   58 1   
    57   52   59 1   
    58   53   54 1   
    59   53   55 2   
    60   54   60 1   
    61   54   61 1   
    62   62   63 1   
    63   62   66 1   
    64   63   64 1   
    65   63   67 1   
    66   63   68 1   
    67   64   65 2   
    68   64   69 1   
    69   69   70 1   
    70   69   76 1   
    71   70   71 1   
    72   70   73 1   
    73   70   77 1   
    74   71   72 2   
    75   71   83 1   
    76   73   74 1   
    77   73   75 1   
    78   73   78 1   
    79   74   80 1   
    80   74   81 1   
    81   74   82 1   
    82   75   79 1   
    83   83   84 1   
    84   83   91 1   
    85   84   85 1   
    86   84   87 1   
    87   84   92 1   
    88   85   86 2   
    89   85  102 1   
    90   87   88 1   
    91   87   89 1   
    92   87   93 1   
    93   88   90 1   
    94   88   94 1   
    95   88   95 1   
    96   89   96 1   
    97   89   97 1   
    98   89   98 1   
    99   90   99 1   
   100   90  100 1   
   101   90  101 1   
   102  102  103 1   
   103  102  110 1   
   104  103  104 1   
   105  103  106 1   
   106  103  111 1   
   107  104  105 2   
   108  104  114 1   
   109  106  107 1   
   110  106  112 1   
   111  106  113 1   
   112  107  108 1   
   113  107  109 1   
   114  114  115 1   
   115  114  125 1   
   116  115  116 1   
   117  115  118 1   
   118  115  126 1   
   119  116  117 2   
   120  116  134 1   
   121  118  119 1   
   122  118  127 1   
   123  118  128 1   
   124  119  120 ar  
   125  119  121 ar  
   126  120  122 ar  
   127  120  129 1   
   128  121  123 ar  
   129  121  130 1   
   130  122  124 ar  
   131  122  131 1   
   132  123  124 ar  
   133  123  132 1   
   134  124  133 1   
   135  134  135 1   
   136  134  140 1   
   137  135  136 1   
   138  135  138 1   
   139  135  141 1   
   140  136  137 2   
   141  136  148 1   
   142  138  139 1   
   143  138  142 1   
   144  138  143 1   
   145  139  140 1   
   146  139  144 1   
   147  139  145 1   
   148  140  146 1   
   149  140  147 1   
   150  148  149 1   
   151  148  157 1   
   152  149  150 1   
   153  149  152 1   
   154  149  158 1   
   155  150  151 2   
   156  150  163 1   
   157  152  153 1   
   158  152  159 1   
   159  152  160 1   
   160  153  154 1   
   161  153  161 1   
   162  153  162 1   
   163  154  155 1   
   164  154  156 1   
   165  163  164 1   
   166  163  168 1   
   167  164  165 1   
   168  164  166 1   
   169  164  167 1   
   170  170  171 1   
   171  170  172 1   
   172  173  174 1   
   173  173  175 1   
   174  176  177 1   
   175  176  178 1   
@<TRIPOS>SUBSTRUCTURE
     1 MOL         1 TEMP              0 ****  ****    0 ROOT
