@<TRIPOS>MOLECULE
MOL
  188   182     1     0     0
SMALL
resp


@<TRIPOS>ATOM
      1 C1         -6.2790    2.5210   -3.0480 c3        1 MOL     -0.509396
      2 C2         -7.1410    2.3550   -1.7430 c         1 MOL      0.547379
      3 O1         -6.6240    2.0430   -0.6750 o         1 MOL     -0.503948
      4 H1         -6.8800    3.0020   -3.8200 hc        1 MOL      0.131409
      5 H2         -5.4070    3.1370   -2.8310 hc        1 MOL      0.131409
      6 H3         -5.9550    1.5410   -3.3980 hc        1 MOL      0.131409
      7 N1         -8.4510    2.5920   -1.8300 n         1 MOL     -0.458633
      8 C3         -9.3350    2.3890   -0.7370 c3        1 MOL      0.392046
      9 C4         -9.2080    1.0030    0.0010 c         1 MOL      0.347784
     10 O2         -9.1770    0.9990    1.1970 o         1 MOL     -0.430000
     11 C5         -9.3100    3.5790    0.2390 c3        1 MOL     -0.206997
     12 C6        -10.6660    3.8560    1.0090 c         1 MOL      0.628457
     13 O3        -10.6970    4.6860    1.9460 o         1 MOL     -0.649507
     14 O4        -11.6160    3.0590    0.7580 o         1 MOL     -0.649507
     15 H4         -8.9020    2.6950   -2.7280 hn        1 MOL      0.281900
     16 H5        -10.3510    2.3660   -1.1270 h1        1 MOL     -0.085513
     17 H6         -9.1770    4.4240   -0.4430 hc        1 MOL      0.044393
     18 H7         -8.4460    3.5140    0.9090 hc        1 MOL      0.044393
     19 N2         -9.0730   -0.0890   -0.7560 n         1 MOL     -0.428556
     20 C7         -8.8650   -1.5020   -0.3100 c3        1 MOL      0.243862
     21 C8         -7.3670   -1.9230   -0.2790 c         1 MOL      0.470546
     22 O5         -7.1140   -3.1010   -0.2780 o         1 MOL     -0.583534
     23 C9         -9.5680   -2.5340   -1.1910 c3        1 MOL      0.059853
     24 C10       -11.0320   -2.2920   -1.3600 c3        1 MOL      0.020645
     25 C11       -11.5850   -3.3810   -2.3030 c3        1 MOL     -0.019690
     26 C12       -13.1080   -3.3830   -2.5970 c3        1 MOL      0.088581
     27 N3        -13.8010   -4.3790   -1.7650 n4        1 MOL     -0.276176
     28 H8         -8.9800    0.0450   -1.7550 hn        1 MOL      0.196093
     29 H9         -9.3290   -1.6150    0.6680 h1        1 MOL      0.040681
     30 H10        -9.4630   -3.5070   -0.7120 hc        1 MOL     -0.014361
     31 H11        -9.0510   -2.5730   -2.1460 hc        1 MOL     -0.014361
     32 H12       -11.2650   -1.3320   -1.8150 hc        1 MOL      0.009289
     33 H13       -11.4940   -2.1970   -0.3710 hc        1 MOL      0.009289
     34 H14       -11.2670   -4.3780   -1.9980 hc        1 MOL      0.017497
     35 H15       -11.1810   -3.2700   -3.3110 hc        1 MOL      0.017497
     36 H16       -13.3030   -3.5890   -3.6510 hx        1 MOL      0.060070
     37 H17       -13.5470   -2.3990   -2.4820 hx        1 MOL      0.060070
     38 H18       -14.7780   -4.3810   -1.9990 hn        1 MOL      0.232576
     39 H19       -13.5500   -5.3360   -1.9050 hn        1 MOL      0.232576
     40 H20       -13.8050   -4.1950   -0.7660 hn        1 MOL      0.232576
     41 N4         -6.4170   -0.9610   -0.2740 n         1 MOL     -0.503796
     42 C13        -4.9690   -1.3040   -0.2900 c3        1 MOL      0.192274
     43 C14        -4.6220   -2.0430    1.0620 c         1 MOL      0.528391
     44 O6         -4.7560   -1.4520    2.1680 o         1 MOL     -0.521713
     45 C15        -4.0980   -0.0880   -0.4300 c3        1 MOL     -0.333618
     46 C16        -2.6840   -0.6310   -0.7770 c         1 MOL      0.651253
     47 O7         -2.2160   -0.4880   -1.9380 o         1 MOL     -0.745102
     48 O8         -2.0520   -1.1990    0.1440 o         1 MOL     -0.745102
     49 H21        -6.7370   -0.0030   -0.2640 hn        1 MOL      0.270883
     50 H22        -4.7670   -2.0290   -1.0700 h1        1 MOL      0.026949
     51 H23        -4.1530    0.5090    0.4780 hc        1 MOL      0.159547
     52 H24        -4.5080    0.5060   -1.2480 hc        1 MOL      0.159547
     53 N5         -4.1170   -3.2260    0.9440 n         1 MOL     -0.064862
     54 C17        -3.9660   -4.1570    2.0480 c3        1 MOL     -0.313103
     55 C18        -2.8860   -3.6910    3.0210 c         1 MOL      0.651828
     56 O9         -3.0200   -4.0630    4.1770 o         1 MOL     -0.524374
     57 H25        -4.0870   -3.6580    0.0290 hn        1 MOL      0.165764
     58 H26        -3.7090   -5.1490    1.6810 h1        1 MOL      0.135571
     59 H27        -4.9500   -4.1330    2.5200 h1        1 MOL      0.135571
     60 N6         -1.8840   -2.8410    2.6120 n         1 MOL     -0.508393
     61 C19        -1.0610   -2.1490    3.6050 c3        1 MOL     -0.007937
     62 C20        -1.2300   -0.6210    3.5350 c         1 MOL      0.558641
     63 O10        -0.3790    0.1540    3.9660 o         1 MOL     -0.610199
     64 C21         0.3760   -2.6770    3.4990 c3        1 MOL     -0.060928
     65 C22         1.1510   -2.3580    2.2190 c         1 MOL      0.537047
     66 N7          2.4770   -2.4220    2.2810 n         1 MOL     -0.754664
     67 O11         0.6210   -2.0520    1.1530 o         1 MOL     -0.485007
     68 H28        -1.8550   -2.4980    1.6670 hn        1 MOL      0.092520
     69 H29        -1.3280   -2.4170    4.6290 h1        1 MOL      0.121141
     70 H30         0.4790   -3.7340    3.7290 hc        1 MOL      0.066954
     71 H31         0.9550   -2.2450    4.3200 hc        1 MOL      0.066954
     72 H32         2.9830   -2.7420    3.0960 hn        1 MOL      0.355653
     73 H33         2.9640   -2.0740    1.4740 hn        1 MOL      0.355653
     74 N8         -2.3410   -0.1440    2.9140 n         1 MOL     -0.173966
     75 C23        -2.8660    1.2120    3.0350 c3        1 MOL     -0.459313
     76 C24        -2.2690    2.1950    2.0680 c         1 MOL      0.606896
     77 O12        -2.6320    3.3440    2.0450 o         1 MOL     -0.541065
     78 H34        -2.9030   -0.7680    2.3650 hn        1 MOL      0.185184
     79 H35        -2.5970    1.4790    4.0480 h1        1 MOL      0.211830
     80 H36        -3.9510    1.1600    2.9210 h1        1 MOL      0.211830
     81 N9         -1.3530    1.7610    1.2100 n         1 MOL     -0.333151
     82 C25        -0.5680    2.5820    0.3110 c3        1 MOL     -0.066550
     83 C26         0.6820    1.8060   -0.0680 c         1 MOL      0.104203
     84 O13         0.6560    0.6090   -0.3620 o         1 MOL     -0.507498
     85 C27        -1.3550    3.0190   -0.9130 c3        1 MOL     -0.108171
     86 C28        -0.5120    3.4530   -2.1400 ca        1 MOL      0.041640
     87 C29        -0.2030    4.8010   -2.3090 ca        1 MOL     -0.112662
     88 C30        -0.0460    2.4680   -3.0040 ca        1 MOL     -0.112662
     89 C31         0.4680    5.1850   -3.5160 ca        1 MOL     -0.311272
     90 C32         0.6600    2.8400   -4.1870 ca        1 MOL     -0.311272
     91 C33         0.9760    4.2170   -4.4680 ca        1 MOL      0.332423
     92 O14         1.7800    4.5810   -5.4670 oh        1 MOL     -0.411161
     93 H37        -1.0370    0.8060    1.2820 hn        1 MOL      0.374676
     94 H38        -0.2660    3.4650    0.8620 h1        1 MOL      0.099619
     95 H39        -1.9940    3.8250   -0.5660 hc        1 MOL      0.106721
     96 H40        -2.1400    2.3490   -1.2800 hc        1 MOL      0.106721
     97 H41        -0.5910    5.5210   -1.5960 ha        1 MOL      0.141088
     98 H42        -0.1570    1.4140   -2.7850 ha        1 MOL      0.141088
     99 H43         0.7190    6.2050   -3.7830 ha        1 MOL      0.152184
    100 H44         1.0610    2.1170   -4.8820 ha        1 MOL      0.152184
    101 H45         2.0810    3.7950   -5.9320 ho        1 MOL      0.332464
    102 N10         1.7590    2.5730   -0.0370 n         1 MOL     -0.051032
    103 C34         3.1070    2.0920   -0.1740 c3        1 MOL     -0.207973
    104 C35         3.5260    1.3190    1.0610 c         1 MOL      0.570870
    105 O15         4.0170    0.2050    1.0310 o         1 MOL     -0.541429
    106 C36         4.0600    3.3040   -0.4320 c3        1 MOL      0.233436
    107 C37         3.6550    4.0820   -1.7100 c3        1 MOL      0.101100
    108 C38         5.5310    2.9010   -0.5060 c3        1 MOL     -0.377210
    109 C39         4.6450    4.9980   -2.2750 c3        1 MOL     -0.194186
    110 H46         1.6940    3.5670    0.1200 hn        1 MOL      0.208037
    111 H47         3.1070    1.3450   -0.9680 h1        1 MOL      0.031423
    112 H48         3.9030    4.0150    0.3800 hc        1 MOL     -0.059423
    113 H49         2.7120    4.6050   -1.5340 hc        1 MOL     -0.005955
    114 H50         3.4440    3.3900   -2.5220 hc        1 MOL     -0.005955
    115 H51         6.1810    3.7580   -0.3490 hc        1 MOL      0.096711
    116 H52         5.7660    2.2880    0.3740 hc        1 MOL      0.096711
    117 H53         5.6260    2.2810   -1.3930 hc        1 MOL      0.096711
    118 H54         5.0050    5.8730   -1.7360 hc        1 MOL      0.056456
    119 H55         5.5000    4.4280   -2.6500 hc        1 MOL      0.056456
    120 H56         4.2580    5.4270   -3.1980 hc        1 MOL      0.056456
    121 N11         3.0830    1.7860    2.1990 n         1 MOL      0.030871
    122 C40         3.3270    1.1000    3.5420 c3        1 MOL     -0.546755
    123 C41         4.7840    0.9450    4.0640 c         1 MOL      0.689285
    124 O16         4.9870    0.2590    5.0490 o         1 MOL     -0.508977
    125 C42         2.5570    1.7830    4.6310 c3        1 MOL      0.259681
    126 O17         3.0800    3.0760    4.6530 oh        1 MOL     -0.625716
    127 H57         2.6310    2.6800    2.2810 hn        1 MOL      0.170924
    128 H58         2.8920    0.1140    3.3780 h1        1 MOL      0.204057
    129 H59         2.6590    1.2950    5.6050 h1        1 MOL      0.049433
    130 H60         1.4900    1.9020    4.4520 h1        1 MOL      0.049433
    131 H61         2.6010    3.5620    5.3300 ho        1 MOL      0.417526
    132 N12         5.7020    1.6210    3.3570 n         1 MOL     -0.428209
    133 C43         7.1510    1.4650    3.2690 c3        1 MOL      0.145742
    134 C44         7.8310    0.1740    2.7150 c         1 MOL      0.526112
    135 O18         8.9350   -0.0720    2.9520 o         1 MOL     -0.509620
    136 C45         7.6840    1.8720    4.6270 c3        1 MOL     -0.240568
    137 H62         5.2800    2.2710    2.7070 hn        1 MOL      0.216756
    138 H63         7.6050    2.2010    2.6010 h1        1 MOL      0.084430
    139 H64         7.5400    2.9230    4.8840 hc        1 MOL      0.069547
    140 H65         7.3540    1.2560    5.4610 hc        1 MOL      0.069547
    141 H66         8.7750    1.8480    4.5730 hc        1 MOL      0.069547
    142 N13         7.1130   -0.5290    1.8340 n         1 MOL     -0.521496
    143 C46         7.6470   -1.6190    1.0950 c3        1 MOL      0.463321
    144 C47         8.2710   -1.1060   -0.2290 c         1 MOL      0.350137
    145 O19         7.6790   -0.1940   -0.8530 o         1 MOL     -0.494479
    146 C48         6.4600   -2.6130    0.9190 c3        1 MOL     -0.288594
    147 H67         6.1900   -0.2240    1.5560 hn        1 MOL      0.201477
    148 H68         8.4710   -2.1010    1.6270 h1        1 MOL     -0.036596
    149 H69         6.9140   -3.4990    0.4700 hc        1 MOL      0.056326
    150 H70         6.0550   -2.7870    1.9130 hc        1 MOL      0.056326
    151 H71         5.7890   -2.0950    0.2470 hc        1 MOL      0.056326
    152 N14         9.3830   -1.7560   -0.6360 n         1 MOL     -0.398200
    153 C49        10.1020   -1.4400   -1.8760 c3        1 MOL      0.060455
    154 C50        10.5510   -0.0410   -2.0080 c         1 MOL      0.357189
    155 O20        10.6830    0.4680   -3.1770 o         1 MOL     -0.492715
    156 C51         9.3840   -2.0190   -3.0960 c3        1 MOL     -0.166890
    157 C52         9.3240   -3.5300   -3.2880 c3        1 MOL      0.115677
    158 C53        10.6880   -4.1720   -3.4680 c         1 MOL      0.665041
    159 O21        10.9430   -5.2850   -2.9840 o         1 MOL     -0.663195
    160 O22        11.4340   -3.6220   -4.3020 o         1 MOL     -0.663195
    161 H72         9.6790   -2.5250   -0.0610 hn        1 MOL      0.286085
    162 H73        10.9840   -2.0570   -1.6880 h1        1 MOL      0.066054
    163 H74         9.8170   -1.6860   -4.0360 hc        1 MOL      0.069009
    164 H75         8.3770   -1.5820   -3.0970 hc        1 MOL      0.069009
    165 H76         8.6180   -3.7650   -4.0850 hc        1 MOL     -0.077977
    166 H77         8.8550   -3.9980   -2.4200 hc        1 MOL     -0.077977
    167 N15        10.8840    0.6780   -0.9520 n         1 MOL     -0.183949
    168 C54        11.1400    2.1480   -0.9420 c3        1 MOL     -0.152623
    169 H78        11.7660    2.4130   -1.7940 h1        1 MOL      0.087722
    170 H79        10.1920    2.6830   -1.0080 h1        1 MOL      0.087722
    171 H80        11.6480    2.4220   -0.0180 h1        1 MOL      0.087722
    172 H81        10.9860    0.1160   -0.1250 hn        1 MOL      0.194445
    173 Ca1         0.0760   -1.6920   -1.4760 Ca        1 MOL      1.737931
    174 O23         1.1480   -0.6840   -3.7030 oh        1 MOL     -0.802239
    175 H82         2.0150   -0.2930   -3.7640 ho        1 MOL      0.405940
    176 H83         0.6800   -0.3760   -4.4750 ho        1 MOL      0.405940
    177 O24         2.8320   -1.4520   -0.6790 oh        1 MOL     -0.802239
    178 H84         3.2410   -0.6970   -0.2470 ho        1 MOL      0.405940
    179 H85         3.5540   -1.8870   -1.1340 ho        1 MOL      0.405940
    180 O25        -1.1370   -2.7820   -3.5070 oh        1 MOL     -0.802239
    181 H86        -1.9130   -3.3480   -3.5750 ho        1 MOL      0.405940
    182 H87        -0.8300   -2.7030   -4.4170 ho        1 MOL      0.405940
    183 O26         1.5880   -3.8680   -2.0000 oh        1 MOL     -0.802239
    184 H88         2.1310   -3.9350   -2.7890 ho        1 MOL      0.405940
    185 H89         2.1010   -4.2850   -1.3140 ho        1 MOL      0.405940
    186 O27        -1.1730   -4.0120   -0.4170 oh        1 MOL     -0.802239
    187 H90        -1.1440   -4.9430   -0.6360 ho        1 MOL      0.405940
    188 H91        -1.8070   -3.9490    0.2970 ho        1 MOL      0.405940
@<TRIPOS>BOND
     1    1    2 1   
     2    1    4 1   
     3    1    5 1   
     4    1    6 1   
     5    2    3 2   
     6    2    7 1   
     7    7    8 1   
     8    7   15 1   
     9    8    9 1   
    10    8   11 1   
    11    8   16 1   
    12    9   10 2   
    13    9   19 1   
    14   11   12 1   
    15   11   17 1   
    16   11   18 1   
    17   12   13 1   
    18   12   14 1   
    19   19   20 1   
    20   19   28 1   
    21   20   21 1   
    22   20   23 1   
    23   20   29 1   
    24   21   22 2   
    25   21   41 1   
    26   23   24 1   
    27   23   30 1   
    28   23   31 1   
    29   24   25 1   
    30   24   32 1   
    31   24   33 1   
    32   25   26 1   
    33   25   34 1   
    34   25   35 1   
    35   26   27 1   
    36   26   36 1   
    37   26   37 1   
    38   27   38 1   
    39   27   39 1   
    40   27   40 1   
    41   41   42 1   
    42   41   49 1   
    43   42   43 1   
    44   42   45 1   
    45   42   50 1   
    46   43   44 2   
    47   43   53 1   
    48   45   46 1   
    49   45   51 1   
    50   45   52 1   
    51   46   47 1   
    52   46   48 1   
    53   53   54 1   
    54   53   57 1   
    55   54   55 1   
    56   54   58 1   
    57   54   59 1   
    58   55   56 2   
    59   55   60 1   
    60   60   61 1   
    61   60   68 1   
    62   61   62 1   
    63   61   64 1   
    64   61   69 1   
    65   62   63 2   
    66   62   74 1   
    67   64   65 1   
    68   64   70 1   
    69   64   71 1   
    70   65   66 1   
    71   65   67 2   
    72   66   72 1   
    73   66   73 1   
    74   74   75 1   
    75   74   78 1   
    76   75   76 1   
    77   75   79 1   
    78   75   80 1   
    79   76   77 2   
    80   76   81 1   
    81   81   82 1   
    82   81   93 1   
    83   82   83 1   
    84   82   85 1   
    85   82   94 1   
    86   83   84 2   
    87   83  102 1   
    88   85   86 1   
    89   85   95 1   
    90   85   96 1   
    91   86   87 ar  
    92   86   88 ar  
    93   87   89 ar  
    94   87   97 1   
    95   88   90 ar  
    96   88   98 1   
    97   89   91 ar  
    98   89   99 1   
    99   90   91 ar  
   100   90  100 1   
   101   91   92 1   
   102   92  101 1   
   103  102  103 1   
   104  102  110 1   
   105  103  104 1   
   106  103  106 1   
   107  103  111 1   
   108  104  105 2   
   109  104  121 1   
   110  106  107 1   
   111  106  108 1   
   112  106  112 1   
   113  107  109 1   
   114  107  113 1   
   115  107  114 1   
   116  108  115 1   
   117  108  116 1   
   118  108  117 1   
   119  109  118 1   
   120  109  119 1   
   121  109  120 1   
   122  121  122 1   
   123  121  127 1   
   124  122  123 1   
   125  122  125 1   
   126  122  128 1   
   127  123  124 2   
   128  123  132 1   
   129  125  126 1   
   130  125  129 1   
   131  125  130 1   
   132  126  131 1   
   133  132  133 1   
   134  132  137 1   
   135  133  134 1   
   136  133  136 1   
   137  133  138 1   
   138  134  135 2   
   139  134  142 1   
   140  136  139 1   
   141  136  140 1   
   142  136  141 1   
   143  142  143 1   
   144  142  147 1   
   145  143  144 1   
   146  143  146 1   
   147  143  148 1   
   148  144  145 2   
   149  144  152 1   
   150  146  149 1   
   151  146  150 1   
   152  146  151 1   
   153  152  153 1   
   154  152  161 1   
   155  153  154 1   
   156  153  156 1   
   157  153  162 1   
   158  154  155 2   
   159  154  167 1   
   160  156  157 1   
   161  156  163 1   
   162  156  164 1   
   163  157  158 1   
   164  157  165 1   
   165  157  166 1   
   166  158  159 1   
   167  158  160 1   
   168  167  168 1   
   169  167  172 1   
   170  168  169 1   
   171  168  170 1   
   172  168  171 1   
   173  174  175 1   
   174  174  176 1   
   175  177  178 1   
   176  177  179 1   
   177  180  181 1   
   178  180  182 1   
   179  183  184 1   
   180  183  185 1   
   181  186  187 1   
   182  186  188 1   
@<TRIPOS>SUBSTRUCTURE
     1 MOL         1 TEMP              0 ****  ****    0 ROOT
