@<TRIPOS>MOLECULE
MOL
  195   189     1     0     0
SMALL
resp


@<TRIPOS>ATOM
      1 C1         -3.0390   -2.2170    2.7630 c3        1 MOL     -0.489058
      2 C2         -2.3230   -2.9200    1.5380 c         1 MOL      0.614082
      3 O1         -1.4370   -2.3220    0.8260 o         1 MOL     -0.439305
      4 H1         -3.0980   -1.1430    2.5810 hc        1 MOL      0.122158
      5 H2         -4.0450   -2.6200    2.8760 hc        1 MOL      0.122158
      6 H3         -2.4680   -2.4000    3.6720 hc        1 MOL      0.122158
      7 N1         -2.8050   -4.1730    1.1720 n         1 MOL     -0.540000
      8 C3         -2.1360   -5.0020    0.1500 c3        1 MOL     -0.018138
      9 C4         -0.6050   -5.1460    0.2750 c         1 MOL      0.694476
     10 O2          0.1270   -5.0060   -0.7250 o         1 MOL     -0.509134
     11 C5         -2.6530   -4.7340   -1.2610 c3        1 MOL     -0.256185
     12 C6         -4.2020   -4.6210   -1.4810 c         1 MOL      0.799414
     13 O3         -4.9420   -5.3700   -0.8350 o         1 MOL     -0.746202
     14 O4         -4.6890   -3.9020   -2.4260 o         1 MOL     -0.746202
     15 H4         -3.5900   -4.6180    1.6170 hn        1 MOL      0.276591
     16 H5         -2.5320   -6.0170    0.2320 h1        1 MOL      0.070580
     17 H6         -2.2800   -5.4490   -1.9870 hc        1 MOL      0.081897
     18 H7         -2.1270   -3.7980   -1.4200 hc        1 MOL      0.081897
     19 N2         -0.0680   -5.2120    1.4920 n         1 MOL     -0.634520
     20 C7          1.4200   -5.1060    1.6960 c3        1 MOL     -0.043885
     21 C8          2.2900   -6.2400    1.0110 c         1 MOL      0.224493
     22 O5          1.7440   -7.3840    0.7040 o         1 MOL     -0.518411
     23 C9          1.8570   -5.0210    3.1540 c3        1 MOL      0.148482
     24 C10         1.7420   -6.3770    3.9200 c3        1 MOL      0.081955
     25 C11         1.0580   -3.8980    3.8980 c3        1 MOL     -0.129988
     26 C12         1.8140   -6.3900    5.5210 c3        1 MOL     -0.276896
     27 H8         -0.6060   -5.2100    2.3510 hn        1 MOL      0.335248
     28 H9          1.6280   -4.1670    1.1920 h1        1 MOL      0.144834
     29 H10         2.8900   -4.6900    3.1920 hc        1 MOL      0.069273
     30 H11         2.5220   -7.0470    3.5620 hc        1 MOL      0.006999
     31 H12         0.7960   -6.8400    3.6460 hc        1 MOL      0.006999
     32 H13         1.4670   -3.7650    4.9010 hc        1 MOL      0.018692
     33 H14         1.0190   -3.0570    3.1950 hc        1 MOL      0.018692
     34 H15         0.0550   -4.3020    4.0870 hc        1 MOL      0.018692
     35 H16         2.6820   -5.8450    5.8830 hc        1 MOL      0.058942
     36 H17         0.8380   -6.0660    5.8950 hc        1 MOL      0.058942
     37 H18         1.9790   -7.4180    5.8450 hc        1 MOL      0.058942
     38 N3          3.5480   -5.9490    0.6980 n         1 MOL     -0.070679
     39 C13         4.2350   -4.7080    0.7480 c3        1 MOL     -0.405206
     40 C14         4.3840   -3.8210   -0.4790 c         1 MOL      0.633342
     41 O6          4.7310   -2.6350   -0.3780 o         1 MOL     -0.542643
     42 C15         5.6190   -4.9210    1.3800 c3        1 MOL     -0.174027
     43 C16         6.5370   -6.0710    0.8440 c         1 MOL      0.816685
     44 O7          6.1290   -6.8460   -0.0240 o         1 MOL     -0.736420
     45 O8          7.5940   -6.2230    1.3700 o         1 MOL     -0.736420
     46 H19         4.0790   -6.7120    0.3000 hn        1 MOL      0.207647
     47 H20         3.7260   -4.2210    1.5890 h1        1 MOL      0.152048
     48 H21         5.4720   -5.1110    2.4440 hc        1 MOL      0.036307
     49 H22         6.1700   -3.9910    1.2810 hc        1 MOL      0.036307
     50 N4          4.0170   -4.3600   -1.6290 n         1 MOL     -0.221668
     51 C17         3.9570   -3.6320   -2.8630 c3        1 MOL     -0.406588
     52 C18         5.3200   -3.0190   -3.1200 c         1 MOL      0.583984
     53 O9          6.3840   -3.6690   -3.2670 o         1 MOL     -0.563062
     54 H23         3.9130   -5.3610   -1.7020 hn        1 MOL      0.290607
     55 H24         3.1400   -2.9050   -2.8730 h1        1 MOL      0.159259
     56 H25         3.7580   -4.4430   -3.5670 h1        1 MOL      0.159259
     57 N5          5.3560   -1.6710   -3.1160 n         1 MOL     -0.453223
     58 C19         6.4900   -0.7670   -3.4780 c3        1 MOL      0.044028
     59 C20         7.3600   -0.4180   -2.2350 c         1 MOL      0.379125
     60 O10         8.3790    0.2530   -2.4800 o         1 MOL     -0.594830
     61 C21         6.0410    0.5160   -4.2390 c3        1 MOL     -0.366317
     62 C22         4.8800    1.2760   -3.5510 c         1 MOL      0.761411
     63 O11         4.9790    1.6560   -2.3810 o         1 MOL     -0.709162
     64 O12         3.7480    1.2610   -4.1050 o         1 MOL     -0.709162
     65 H26         4.4810   -1.2400   -2.8330 hn        1 MOL      0.339635
     66 H27         7.0330   -1.3670   -4.2100 h1        1 MOL      0.126872
     67 H28         5.8630    0.1520   -5.2540 hc        1 MOL      0.067921
     68 H29         6.8410    1.2150   -4.4940 hc        1 MOL      0.067921
     69 N6          6.8960   -0.7170   -1.0780 n         1 MOL     -0.065916
     70 C23         7.4000   -0.2240    0.2220 c3        1 MOL     -0.230492
     71 C24         7.4580    1.3350    0.4680 c         1 MOL      0.547218
     72 O13         8.0440    1.8070    1.4520 o         1 MOL     -0.610935
     73 H30         6.0370   -1.2580   -1.1060 hn        1 MOL      0.206492
     74 H31         8.4150   -0.5120    0.4770 h1        1 MOL      0.106255
     75 H32         6.7240   -0.6920    0.9350 h1        1 MOL      0.106255
     76 N7          6.8690    2.0950   -0.4100 n         1 MOL     -0.128472
     77 C25         6.7980    3.6390   -0.4820 c3        1 MOL     -0.047539
     78 C26         6.1590    4.2230    0.7690 c         1 MOL      0.565077
     79 O14         6.4100    5.3490    1.1470 o         1 MOL     -0.516864
     80 C27         8.1300    4.2130   -0.8340 c3        1 MOL     -0.018826
     81 C28         8.7830    3.7620   -2.1580 c3        1 MOL     -0.084699
     82 C29         9.8480    4.7350   -2.6950 c         1 MOL      0.626419
     83 N8         10.7110    4.2020   -3.5260 n         1 MOL     -0.814262
     84 O15        10.0030    5.8160   -2.1490 o         1 MOL     -0.570436
     85 H33         6.3630    1.5500   -1.0860 hn        1 MOL      0.160537
     86 H34         6.1610    3.8270   -1.3490 h1        1 MOL      0.111253
     87 H35         8.8890    3.9370   -0.0970 hc        1 MOL      0.026740
     88 H36         8.0100    5.2950   -0.8050 hc        1 MOL      0.026740
     89 H37         7.9900    3.6550   -2.8930 hc        1 MOL      0.057382
     90 H38         9.3040    2.8330   -1.9400 hc        1 MOL      0.057382
     91 H39        10.6410    3.2230   -3.7770 hn        1 MOL      0.355481
     92 H40        11.5910    4.6880   -3.6500 hn        1 MOL      0.355481
     93 N9          5.1850    3.5060    1.3660 n         1 MOL     -0.558285
     94 C30         4.5020    3.8010    2.6630 c3        1 MOL      0.081426
     95 C31         3.0070    3.5500    2.6700 c         1 MOL      0.657120
     96 O16         2.3070    4.0510    3.5130 o         1 MOL     -0.616101
     97 C32         5.2250    3.2180    3.9370 c3        1 MOL      0.238077
     98 C33         5.0710    1.7070    4.2540 c3        1 MOL     -0.235829
     99 C34         6.6050    3.7670    4.0860 c3        1 MOL     -0.235829
    100 H41         5.1070    2.5370    1.0880 hn        1 MOL      0.246790
    101 H42         4.4800    4.8780    2.8290 h1        1 MOL      0.074533
    102 H43         4.5950    3.6620    4.7090 hc        1 MOL     -0.077509
    103 H44         4.0500    1.3340    4.3670 hc        1 MOL      0.054866
    104 H45         5.6140    1.1640    3.4760 hc        1 MOL      0.054866
    105 H46         5.5270    1.3480    5.1680 hc        1 MOL      0.054866
    106 H47         6.6660    4.8100    3.7820 hc        1 MOL      0.054866
    107 H48         6.9680    3.5740    5.0950 hc        1 MOL      0.054866
    108 H49         7.1730    3.2160    3.3280 hc        1 MOL      0.054866
    109 N10         2.4060    2.8680    1.6960 n         1 MOL     -0.633991
    110 C35         0.9910    2.5710    1.6140 c3        1 MOL      0.444956
    111 C36         0.4270    3.1450    0.2910 c         1 MOL      0.493652
    112 O17         1.1240    3.4610   -0.6640 o         1 MOL     -0.480342
    113 C37         0.8420    1.0990    1.6110 c3        1 MOL     -0.240710
    114 C38         1.1970    0.4750    2.9240 c         1 MOL      0.653549
    115 N11         0.4100    0.8910    3.9170 n         1 MOL     -0.828952
    116 O18         2.2000   -0.1660    3.1420 o         1 MOL     -0.561277
    117 H50         3.0340    2.5060    0.9940 hn        1 MOL      0.305065
    118 H51         0.3700    3.0620    2.3670 h1        1 MOL     -0.027031
    119 H52         1.4430    0.5860    0.8520 hc        1 MOL      0.076865
    120 H53        -0.2070    0.8170    1.4700 hc        1 MOL      0.076865
    121 H54        -0.3830    1.4540    3.6630 hn        1 MOL      0.377579
    122 H55         0.7810    0.7170    4.8450 hn        1 MOL      0.377579
    123 N12        -0.9180    3.3680    0.4190 n         1 MOL     -0.453150
    124 C39        -1.7590    4.1990   -0.4940 c3        1 MOL      0.035929
    125 C40        -3.1700    4.4570   -0.0390 c         1 MOL      0.564281
    126 O19        -3.5560    3.9680    1.0340 o         1 MOL     -0.553658
    127 C41        -1.8050    3.4650   -1.7650 c3        1 MOL     -0.233008
    128 C42        -2.7890    2.3140   -1.8050 ca        1 MOL      0.116287
    129 C43        -2.8240    1.2160   -0.8880 ca        1 MOL     -0.234820
    130 C44        -3.7610    2.2980   -2.8720 ca        1 MOL     -0.234820
    131 C45        -3.6370    0.0790   -1.0880 ca        1 MOL     -0.054900
    132 C46        -4.5200    1.1170   -3.1330 ca        1 MOL     -0.054900
    133 C47        -4.4080    0.0500   -2.2640 ca        1 MOL      0.059271
    134 O20        -5.2410   -0.9970   -2.6020 oh        1 MOL     -0.452651
    135 H56        -1.4120    2.9950    1.2170 hn        1 MOL      0.246031
    136 H57        -1.2260    5.1330   -0.6890 h1        1 MOL      0.091861
    137 H58        -0.8300    3.1090   -2.1130 hc        1 MOL      0.105005
    138 H59        -2.1060    4.2790   -2.4150 hc        1 MOL      0.105005
    139 H60        -2.2370    1.1480    0.0080 ha        1 MOL      0.132145
    140 H61        -3.8220    3.1640   -3.5100 ha        1 MOL      0.132145
    141 H62        -3.6370   -0.7600   -0.4200 ha        1 MOL      0.098005
    142 H63        -5.1410    0.9990   -4.0070 ha        1 MOL      0.098005
    143 H64        -4.9450   -1.7550   -2.0980 ho        1 MOL      0.447681
    144 N13        -3.9060    5.3510   -0.7820 n         1 MOL     -0.590344
    145 C48        -5.3380    5.6400   -0.4620 c3        1 MOL      0.228400
    146 C49        -6.2800    4.8770   -1.2940 c         1 MOL      0.395174
    147 O21        -6.7160    5.3010   -2.4030 o         1 MOL     -0.590490
    148 C50        -5.6450    7.1280   -0.5110 c3        1 MOL     -0.167162
    149 C51        -5.2480    7.6600    0.7990 c3        1 MOL     -0.162936
    150 C52        -5.5590    9.2140    0.7360 c         1 MOL      0.645700
    151 O22        -6.4060    9.7100    1.5350 o         1 MOL     -0.680840
    152 O23        -5.0770    9.9380   -0.1750 o         1 MOL     -0.680840
    153 H65        -3.6070    5.4450   -1.7460 hn        1 MOL      0.371379
    154 H66        -5.5120    5.1470    0.5020 h1        1 MOL      0.101365
    155 H67        -6.7200    7.2770   -0.6280 hc        1 MOL      0.088451
    156 H68        -5.0710    7.5050   -1.3560 hc        1 MOL      0.088451
    157 H69        -4.1680    7.5630    0.9040 hc        1 MOL      0.025099
    158 H70        -5.7610    7.2210    1.6560 hc        1 MOL      0.025099
    159 N14        -6.7250    3.6520   -1.0260 n         1 MOL     -0.328747
    160 C53        -6.3920    2.7960    0.0900 c3        1 MOL     -0.232825
    161 C54        -6.9970    3.3620    1.3860 c         1 MOL      0.544407
    162 O24        -8.0650    3.9850    1.3180 o         1 MOL     -0.542260
    163 C55        -6.9380    1.3530   -0.1250 c3        1 MOL      0.162746
    164 C56        -6.4250    0.1760    0.7750 c3        1 MOL     -0.071806
    165 C57        -6.7680   -1.2300    0.2030 c         1 MOL      0.603602
    166 O25        -5.9420   -2.1220    0.0200 o         1 MOL     -0.695251
    167 O26        -7.9840   -1.3830   -0.1850 o         1 MOL     -0.695251
    168 H71        -7.4990    3.3830   -1.6200 hn        1 MOL      0.288745
    169 H72        -5.3100    2.7570    0.1910 h1        1 MOL      0.150427
    170 H73        -6.7710    1.0990   -1.1790 hc        1 MOL     -0.015003
    171 H74        -8.0230    1.2810    0.0010 hc        1 MOL     -0.015003
    172 H75        -6.8320    0.3480    1.7720 hc        1 MOL     -0.017754
    173 H76        -5.3430    0.2640    0.7860 hc        1 MOL     -0.017754
    174 N15        -6.3780    3.1120    2.5310 n         1 MOL     -0.301130
    175 C58        -6.5950    3.7930    3.8770 c3        1 MOL     -0.151234
    176 H77        -7.6630    3.8980    4.0630 h1        1 MOL      0.086602
    177 H78        -6.1460    3.1900    4.6660 h1        1 MOL      0.086602
    178 H79        -6.1300    4.7800    3.8650 h1        1 MOL      0.086602
    179 H80        -5.5860    2.4890    2.5010 hn        1 MOL      0.251511
    180 Ca1        -7.2530   -4.1910   -0.8780 Ca        1 MOL      1.704709
    181 O27        -9.7630   -3.4920   -1.7060 oh        1 MOL     -0.832338
    182 H81       -10.3120   -2.7540   -1.4500 ho        1 MOL      0.400421
    183 H82       -10.3670   -4.1300   -2.0790 ho        1 MOL      0.400421
    184 O28        -8.4920   -6.5520   -0.4940 oh        1 MOL     -0.832338
    185 O29        -7.5960   -5.2780   -3.3040 oh        1 MOL     -0.832338
    186 H83        -8.2380   -7.3890   -0.8770 ho        1 MOL      0.400421
    187 H84        -7.4550   -4.5760   -3.9410 ho        1 MOL      0.400421
    188 H85        -9.4440   -6.6290   -0.3650 ho        1 MOL      0.400421
    189 H86        -7.9290   -6.0050   -3.8120 ho        1 MOL      0.400421
    190 O30        -7.2690   -2.6310   -3.2640 oh        1 MOL     -0.832338
    191 H87        -7.9580   -1.9760   -3.1510 ho        1 MOL      0.400421
    192 H88        -6.4670   -2.1180   -3.3670 ho        1 MOL      0.400421
    193 O31        -9.1300   -3.4720    1.0850 oh        1 MOL     -0.832338
    194 H89        -9.8170   -2.8650    0.8220 ho        1 MOL      0.400421
    195 H90        -9.1650   -3.4880    2.0370 ho        1 MOL      0.400421
@<TRIPOS>BOND
     1    1    2 1   
     2    1    4 1   
     3    1    5 1   
     4    1    6 1   
     5    2    3 2   
     6    2    7 1   
     7    7    8 1   
     8    7   15 1   
     9    8    9 1   
    10    8   11 1   
    11    8   16 1   
    12    9   10 2   
    13    9   19 1   
    14   11   12 1   
    15   11   17 1   
    16   11   18 1   
    17   12   13 1   
    18   12   14 1   
    19   19   20 1   
    20   19   27 1   
    21   20   21 1   
    22   20   23 1   
    23   20   28 1   
    24   21   22 2   
    25   21   38 1   
    26   23   24 1   
    27   23   25 1   
    28   23   29 1   
    29   24   26 1   
    30   24   30 1   
    31   24   31 1   
    32   25   32 1   
    33   25   33 1   
    34   25   34 1   
    35   26   35 1   
    36   26   36 1   
    37   26   37 1   
    38   38   39 1   
    39   38   46 1   
    40   39   40 1   
    41   39   42 1   
    42   39   47 1   
    43   40   41 2   
    44   40   50 1   
    45   42   43 1   
    46   42   48 1   
    47   42   49 1   
    48   43   44 1   
    49   43   45 1   
    50   50   51 1   
    51   50   54 1   
    52   51   52 1   
    53   51   55 1   
    54   51   56 1   
    55   52   53 2   
    56   52   57 1   
    57   57   58 1   
    58   57   65 1   
    59   58   59 1   
    60   58   61 1   
    61   58   66 1   
    62   59   60 2   
    63   59   69 1   
    64   61   62 1   
    65   61   67 1   
    66   61   68 1   
    67   62   63 1   
    68   62   64 1   
    69   69   70 1   
    70   69   73 1   
    71   70   71 1   
    72   70   74 1   
    73   70   75 1   
    74   71   72 2   
    75   71   76 1   
    76   76   77 1   
    77   76   85 1   
    78   77   78 1   
    79   77   80 1   
    80   77   86 1   
    81   78   79 2   
    82   78   93 1   
    83   80   81 1   
    84   80   87 1   
    85   80   88 1   
    86   81   82 1   
    87   81   89 1   
    88   81   90 1   
    89   82   83 1   
    90   82   84 2   
    91   83   91 1   
    92   83   92 1   
    93   93   94 1   
    94   93  100 1   
    95   94   95 1   
    96   94   97 1   
    97   94  101 1   
    98   95   96 2   
    99   95  109 1   
   100   97   98 1   
   101   97   99 1   
   102   97  102 1   
   103   98  103 1   
   104   98  104 1   
   105   98  105 1   
   106   99  106 1   
   107   99  107 1   
   108   99  108 1   
   109  109  110 1   
   110  109  117 1   
   111  110  111 1   
   112  110  113 1   
   113  110  118 1   
   114  111  112 2   
   115  111  123 1   
   116  113  114 1   
   117  113  119 1   
   118  113  120 1   
   119  114  115 1   
   120  114  116 2   
   121  115  121 1   
   122  115  122 1   
   123  123  124 1   
   124  123  135 1   
   125  124  125 1   
   126  124  127 1   
   127  124  136 1   
   128  125  126 2   
   129  125  144 1   
   130  127  128 1   
   131  127  137 1   
   132  127  138 1   
   133  128  129 ar  
   134  128  130 ar  
   135  129  131 ar  
   136  129  139 1   
   137  130  132 ar  
   138  130  140 1   
   139  131  133 ar  
   140  131  141 1   
   141  132  133 ar  
   142  132  142 1   
   143  133  134 1   
   144  134  143 1   
   145  144  145 1   
   146  144  153 1   
   147  145  146 1   
   148  145  148 1   
   149  145  154 1   
   150  146  147 2   
   151  146  159 1   
   152  148  149 1   
   153  148  155 1   
   154  148  156 1   
   155  149  150 1   
   156  149  157 1   
   157  149  158 1   
   158  150  151 1   
   159  150  152 1   
   160  159  160 1   
   161  159  168 1   
   162  160  161 1   
   163  160  163 1   
   164  160  169 1   
   165  161  162 2   
   166  161  174 1   
   167  163  164 1   
   168  163  170 1   
   169  163  171 1   
   170  164  165 1   
   171  164  172 1   
   172  164  173 1   
   173  165  166 1   
   174  165  167 1   
   175  174  175 1   
   176  174  179 1   
   177  175  176 1   
   178  175  177 1   
   179  175  178 1   
   180  181  182 1   
   181  181  183 1   
   182  184  186 1   
   183  184  188 1   
   184  185  187 1   
   185  185  189 1   
   186  190  191 1   
   187  190  192 1   
   188  193  194 1   
   189  193  195 1   
@<TRIPOS>SUBSTRUCTURE
     1 MOL         1 TEMP              0 ****  ****    0 ROOT
