@<TRIPOS>MOLECULE
MOL
  178   175     1     0     0
SMALL
resp


@<TRIPOS>ATOM
      1 C1         -5.0370   -1.0750   -4.4580 c3        1 MOL     -0.465237
      2 C2         -6.3320   -0.3830   -3.9810 c         1 MOL      0.751170
      3 O1         -6.4010    0.7850   -3.6600 o         1 MOL     -0.547102
      4 H1         -5.2720   -1.7650   -5.2700 hc        1 MOL      0.118168
      5 H2         -4.3320   -0.3230   -4.8130 hc        1 MOL      0.118168
      6 H3         -4.5930   -1.6270   -3.6300 hc        1 MOL      0.118168
      7 N1         -7.4570   -1.1940   -3.9340 n         1 MOL     -0.760758
      8 C3         -8.7430   -0.6790   -3.2400 c3        1 MOL      0.443551
      9 C4         -8.9390   -1.0560   -1.8030 c         1 MOL      0.488105
     10 O2         -9.9020   -1.6350   -1.3930 o         1 MOL     -0.505093
     11 C5        -10.0000   -1.0010   -4.1130 c3        1 MOL     -0.291519
     12 C6        -11.3270   -0.1720   -3.7980 c         1 MOL      0.723140
     13 O3        -11.3260    0.9060   -3.1290 o         1 MOL     -0.721863
     14 O4        -12.3690   -0.6750   -4.2240 o         1 MOL     -0.721863
     15 H4         -7.5110   -2.1210   -4.3460 hn        1 MOL      0.331483
     16 H5         -8.7590    0.4140   -3.2490 h1        1 MOL     -0.015782
     17 H6        -10.1320   -2.0770   -4.0690 hc        1 MOL      0.014916
     18 H7         -9.7610   -0.7310   -5.1470 hc        1 MOL      0.014916
     19 N2         -7.8350   -0.8260   -1.0770 n         1 MOL     -0.570451
     20 C7         -7.6520   -1.3230    0.3140 c3        1 MOL      0.402264
     21 C8         -6.2040   -1.3660    0.7140 c         1 MOL      0.425704
     22 O5         -5.3210   -0.5730    0.2540 o         1 MOL     -0.489461
     23 C9         -8.5220   -0.5480    1.2920 c3        1 MOL     -0.223980
     24 H8         -7.1040   -0.4110   -1.6510 hn        1 MOL      0.234435
     25 H9         -8.0250   -2.3440    0.3600 h1        1 MOL     -0.047972
     26 H10        -8.1090    0.4590    1.2340 hc        1 MOL      0.056741
     27 H11        -9.5760   -0.5730    0.9810 hc        1 MOL      0.056741
     28 H12        -8.3850   -0.9480    2.2960 hc        1 MOL      0.056741
     29 N3         -5.8700   -2.2010    1.6650 n         1 MOL     -0.631356
     30 C10        -4.4800   -2.2190    2.2620 c3        1 MOL      0.480983
     31 C11        -4.3920   -1.4740    3.6870 c         1 MOL      0.352355
     32 O6         -5.3180   -0.8310    4.1370 o         1 MOL     -0.469807
     33 C12        -4.0230   -3.6860    2.4880 c3        1 MOL     -0.309160
     34 C13        -2.4850   -3.8160    2.4980 c         1 MOL      0.816936
     35 O7         -1.7160   -2.8940    2.1800 o         1 MOL     -0.780382
     36 O8         -2.0200   -4.8450    2.9520 o         1 MOL     -0.780382
     37 H13        -6.6110   -2.7890    2.0140 hn        1 MOL      0.321507
     38 H14        -3.7650   -1.7710    1.5710 h1        1 MOL      0.004687
     39 H15        -4.3780   -4.3040    1.6660 hc        1 MOL      0.035922
     40 H16        -4.5530   -4.0500    3.3640 hc        1 MOL      0.035922
     41 N4         -3.2400   -1.5260    4.4100 n         1 MOL     -0.346935
     42 C14        -3.1370   -1.1110    5.8050 c3        1 MOL     -0.086563
     43 C15        -2.5390    0.2770    6.0550 c         1 MOL      0.504110
     44 O9         -2.6700    0.8830    7.1280 o         1 MOL     -0.561284
     45 H17        -2.5100   -2.0330    3.9410 hn        1 MOL      0.278295
     46 H18        -2.3580   -1.7750    6.2080 h1        1 MOL      0.075164
     47 H19        -4.0670   -1.2980    6.3450 h1        1 MOL      0.075164
     48 N5         -1.9050    0.7950    5.0250 n         1 MOL     -0.243283
     49 C16        -1.2660    2.1200    4.9140 c3        1 MOL      0.105368
     50 C17        -1.7330    2.8700    3.6430 c         1 MOL      0.530167
     51 O10        -2.2330    2.2070    2.6840 o         1 MOL     -0.485620
     52 C18         0.2920    1.9800    4.9350 c3        1 MOL     -0.428081
     53 C19         0.7420    1.0680    6.0230 c         1 MOL      0.727361
     54 N6          1.4980    0.0730    5.6660 n         1 MOL     -0.774201
     55 O11         0.5780    1.3500    7.2170 o         1 MOL     -0.567223
     56 H20        -1.9690    0.2750    4.1560 hn        1 MOL      0.190381
     57 H21        -1.5780    2.7700    5.7260 h1        1 MOL      0.047526
     58 H22         0.6540    2.9760    5.1890 hc        1 MOL      0.126592
     59 H23         0.5910    1.6000    3.9550 hc        1 MOL      0.126592
     60 H24         1.6500   -0.1430    4.6960 hn        1 MOL      0.345620
     61 H25         1.8210   -0.6120    6.3350 hn        1 MOL      0.345620
     62 N7         -1.5470    4.1910    3.6390 n         1 MOL     -0.548517
     63 C20        -1.7860    5.1450    2.5450 c3        1 MOL      0.111313
     64 C21        -0.5870    5.5240    1.7080 c         1 MOL      0.523063
     65 O12         0.6010    5.2030    1.9970 o         1 MOL     -0.534546
     66 H26        -1.0820    4.5030    4.4810 hn        1 MOL      0.326961
     67 H27        -2.1770    6.0630    2.9890 h1        1 MOL      0.049144
     68 H28        -2.5760    4.8550    1.8570 h1        1 MOL      0.049144
     69 N8         -0.8380    6.2400    0.6630 n         1 MOL     -0.341874
     70 C22         0.2480    6.8870   -0.1960 c3        1 MOL     -0.441973
     71 C23         0.9890    5.8930   -1.1160 c         1 MOL      0.527439
     72 O13         2.1110    6.1530   -1.5990 o         1 MOL     -0.569733
     73 C24        -0.1690    8.2580   -0.8770 c3        1 MOL      0.477518
     74 C25        -1.1900    8.0020   -1.9780 c3        1 MOL     -0.145083
     75 O14        -0.6980    9.1260    0.0130 oh        1 MOL     -0.620205
     76 H29        -1.7920    6.4760    0.4620 hn        1 MOL      0.244291
     77 H30         1.0410    7.0340    0.5340 h1        1 MOL      0.188238
     78 H31         0.6940    8.5880   -1.4620 h1        1 MOL      0.035286
     79 H32        -1.2850    8.5800    0.5360 ho        1 MOL      0.380498
     80 H33        -0.9740    7.0620   -2.4920 hc        1 MOL      0.024285
     81 H34        -2.2060    7.9660   -1.5800 hc        1 MOL      0.024285
     82 H35        -1.1610    8.8000   -2.7180 hc        1 MOL      0.024285
     83 N9          0.3190    4.7780   -1.4980 n         1 MOL     -0.049794
     84 C26         0.7770    3.5930   -2.1980 c3        1 MOL     -0.139815
     85 C27         0.8060    2.3930   -1.2810 c         1 MOL      0.230127
     86 O15        -0.2300    2.2420   -0.5360 o         1 MOL     -0.387111
     87 C28        -0.0340    3.3780   -3.5020 c3        1 MOL      0.285856
     88 C29        -1.4620    2.8740   -3.3150 c3        1 MOL      0.180551
     89 C30         0.1490    4.4700   -4.5480 c3        1 MOL     -0.556489
     90 C31        -2.4320    4.0490   -2.8940 c3        1 MOL     -0.495781
     91 H36        -0.5450    4.5900   -1.0160 hn        1 MOL      0.152051
     92 H37         1.7690    3.7570   -2.6040 h1        1 MOL      0.077450
     93 H38         0.5450    2.5220   -3.8710 hc        1 MOL     -0.059190
     94 H39        -1.4530    2.0450   -2.5990 hc        1 MOL      0.006036
     95 H40        -1.8120    2.4590   -4.2580 hc        1 MOL      0.006036
     96 H41        -0.5000    4.3660   -5.4210 hc        1 MOL      0.128451
     97 H42         0.1510    5.4870   -4.1620 hc        1 MOL      0.128451
     98 H43         1.1620    4.4690   -4.9470 hc        1 MOL      0.128451
     99 H44        -2.0700    4.5230   -1.9820 hc        1 MOL      0.123721
    100 H45        -2.4270    4.8330   -3.6480 hc        1 MOL      0.123721
    101 H46        -3.4060    3.6940   -2.5470 hc        1 MOL      0.123721
    102 N10         1.9310    1.6950   -1.1930 n         1 MOL     -0.053350
    103 C32         1.9340    0.4360   -0.4310 c3        1 MOL     -0.363149
    104 C33         3.4370   -0.0240   -0.2910 c         1 MOL      0.610916
    105 O16         3.7930   -1.2110   -0.3820 o         1 MOL     -0.560769
    106 C34         1.2110   -0.6630   -1.1680 c3        1 MOL      0.003326
    107 C35         0.7170   -1.8660   -0.3320 c         1 MOL      0.737357
    108 O17        -0.0110   -2.7590   -0.8270 o         1 MOL     -0.719943
    109 O18         1.0440   -1.9770    0.9310 o         1 MOL     -0.719943
    110 H47         2.7630    1.9640   -1.6920 hn        1 MOL      0.190737
    111 H48         1.4770    0.5780    0.5510 h1        1 MOL      0.167025
    112 H49         1.8520   -1.0750   -1.9410 hc        1 MOL      0.019422
    113 H50         0.3430   -0.2790   -1.7030 hc        1 MOL      0.019422
    114 N11         4.2310    0.9430   -0.0120 n         1 MOL     -0.314088
    115 C36         5.6460    0.7140    0.1730 c3        1 MOL      0.057316
    116 C37         6.2840   -0.0050   -1.0810 c         1 MOL      0.272845
    117 O19         6.2220    0.5110   -2.1730 o         1 MOL     -0.475478
    118 C38         6.3360    2.0890    0.3630 c3        1 MOL     -0.118662
    119 C39         7.7990    2.0760    0.6770 ca        1 MOL      0.008421
    120 C40         8.2410    2.0300    1.9750 ca        1 MOL     -0.140001
    121 C41         8.7200    1.8880   -0.3790 ca        1 MOL     -0.140001
    122 C42         9.5550    1.8390    2.2340 ca        1 MOL     -0.061284
    123 C43        10.0510    1.5220   -0.0980 ca        1 MOL     -0.061284
    124 C44        10.4370    1.5170    1.2380 ca        1 MOL     -0.152538
    125 H51         3.8590    1.8790    0.0830 hn        1 MOL      0.218622
    126 H52         5.6880    0.0380    1.0340 h1        1 MOL      0.061285
    127 H53         5.8210    2.6200    1.1700 hc        1 MOL      0.088539
    128 H54         6.1630    2.7670   -0.4670 hc        1 MOL      0.088539
    129 H55         7.5380    2.0740    2.7960 ha        1 MOL      0.118006
    130 H56         8.3690    1.9750   -1.3960 ha        1 MOL      0.118006
    131 H57         9.8380    1.8830    3.2710 ha        1 MOL      0.096614
    132 H58        10.7830    1.5020   -0.8950 ha        1 MOL      0.096614
    133 H59        11.4750    1.3610    1.4880 ha        1 MOL      0.101012
    134 N12         7.1580   -1.0610   -0.8870 n         1 MOL     -0.066402
    135 C45         7.7310   -1.8880   -1.8860 c3        1 MOL      0.143383
    136 C46         6.7820   -2.6110   -2.8350 c         1 MOL      0.169920
    137 O20         7.2430   -3.0720   -3.8540 o         1 MOL     -0.489369
    138 C47         8.6760   -2.8060   -1.2060 c3        1 MOL     -0.076558
    139 C48         9.0360   -2.0820    0.0890 c3        1 MOL     -0.070729
    140 C49         7.7710   -1.3480    0.3810 c3        1 MOL      0.133363
    141 H60         8.3230   -1.2750   -2.5710 h1        1 MOL      0.051123
    142 H61         8.1920   -3.7220   -0.8380 hc        1 MOL      0.046570
    143 H62         9.5670   -3.0190   -1.7980 hc        1 MOL      0.046570
    144 H63         9.2960   -2.7850    0.8760 hc        1 MOL      0.022006
    145 H64         9.8180   -1.3450   -0.1040 hc        1 MOL      0.022006
    146 H65         7.1470   -2.0630    0.9190 h1        1 MOL     -0.013941
    147 H66         8.0000   -0.4880    1.0000 h1        1 MOL     -0.013941
    148 N13         5.4800   -2.6150   -2.5340 n         1 MOL     -0.011686
    149 C50         4.4690   -3.3110   -3.3360 c3        1 MOL     -0.178317
    150 C51         3.8810   -2.5120   -4.4580 c         1 MOL      0.444771
    151 O21         3.1670   -3.0480   -5.3250 o         1 MOL     -0.532462
    152 C52         3.2730   -3.9960   -2.6260 c3        1 MOL      0.041845
    153 C53         3.7500   -4.8610   -1.4040 c3        1 MOL     -0.067361
    154 C54         2.5830   -5.2420   -0.4500 c         1 MOL      0.680402
    155 O22         1.5250   -5.6990   -0.9720 o         1 MOL     -0.766496
    156 O23         2.6170   -5.1110    0.7910 o         1 MOL     -0.766496
    157 H67         5.1540   -2.2930   -1.6230 hn        1 MOL      0.173790
    158 H68         5.0210   -4.0650   -3.8890 h1        1 MOL      0.109927
    159 H69         2.7710   -4.6760   -3.3150 hc        1 MOL      0.054121
    160 H70         2.6070   -3.2140   -2.2770 hc        1 MOL      0.054121
    161 H71         4.5170   -4.4190   -0.7670 hc        1 MOL      0.000666
    162 H72         4.2170   -5.7840   -1.7580 hc        1 MOL      0.000666
    163 N14         4.0830   -1.1540   -4.4950 n         1 MOL     -0.123210
    164 C55         3.6520   -0.3240   -5.6190 c3        1 MOL     -0.391760
    165 H73         3.6640    0.7250   -5.3220 h1        1 MOL      0.136255
    166 H74         4.3300   -0.4690   -6.4600 h1        1 MOL      0.136255
    167 H75         2.6410   -0.6060   -5.9140 h1        1 MOL      0.136255
    168 H76         4.6490   -0.7460   -3.7720 hn        1 MOL      0.186947
    169 Ca1         0.1660   -4.5080    1.2070 Ca        1 MOL      1.694536
    170 O24         0.8710   -4.6470    3.7530 oh        1 MOL     -0.795373
    171 H77         0.6310   -3.9270    4.3370 ho        1 MOL      0.405038
    172 H78         1.2240   -5.3220    4.3380 ho        1 MOL      0.405038
    173 O25        -2.0400   -5.2280   -0.3660 oh        1 MOL     -0.795373
    174 H79        -2.5240   -4.8250   -1.0880 ho        1 MOL      0.405038
    175 H80        -2.6540   -5.8400    0.0340 ho        1 MOL      0.405038
    176 O26         0.1330   -7.0250    1.6870 oh        1 MOL     -0.795373
    177 H81        -0.3220   -7.6290    1.0940 ho        1 MOL      0.405038
    178 H82         0.8760   -7.5290    2.0150 ho        1 MOL      0.405038
@<TRIPOS>BOND
     1    1    2 1   
     2    1    4 1   
     3    1    5 1   
     4    1    6 1   
     5    2    3 2   
     6    2    7 1   
     7    7    8 1   
     8    7   15 1   
     9    8    9 1   
    10    8   11 1   
    11    8   16 1   
    12    9   10 2   
    13    9   19 1   
    14   11   12 1   
    15   11   17 1   
    16   11   18 1   
    17   12   13 1   
    18   12   14 1   
    19   19   20 1   
    20   19   24 1   
    21   20   21 1   
    22   20   23 1   
    23   20   25 1   
    24   21   22 2   
    25   21   29 1   
    26   23   26 1   
    27   23   27 1   
    28   23   28 1   
    29   29   30 1   
    30   29   37 1   
    31   30   31 1   
    32   30   33 1   
    33   30   38 1   
    34   31   32 2   
    35   31   41 1   
    36   33   34 1   
    37   33   39 1   
    38   33   40 1   
    39   34   35 1   
    40   34   36 1   
    41   41   42 1   
    42   41   45 1   
    43   42   43 1   
    44   42   46 1   
    45   42   47 1   
    46   43   44 2   
    47   43   48 1   
    48   48   49 1   
    49   48   56 1   
    50   49   50 1   
    51   49   52 1   
    52   49   57 1   
    53   50   51 2   
    54   50   62 1   
    55   52   53 1   
    56   52   58 1   
    57   52   59 1   
    58   53   54 1   
    59   53   55 2   
    60   54   60 1   
    61   54   61 1   
    62   62   63 1   
    63   62   66 1   
    64   63   64 1   
    65   63   67 1   
    66   63   68 1   
    67   64   65 2   
    68   64   69 1   
    69   69   70 1   
    70   69   76 1   
    71   70   71 1   
    72   70   73 1   
    73   70   77 1   
    74   71   72 2   
    75   71   83 1   
    76   73   74 1   
    77   73   75 1   
    78   73   78 1   
    79   74   80 1   
    80   74   81 1   
    81   74   82 1   
    82   75   79 1   
    83   83   84 1   
    84   83   91 1   
    85   84   85 1   
    86   84   87 1   
    87   84   92 1   
    88   85   86 2   
    89   85  102 1   
    90   87   88 1   
    91   87   89 1   
    92   87   93 1   
    93   88   90 1   
    94   88   94 1   
    95   88   95 1   
    96   89   96 1   
    97   89   97 1   
    98   89   98 1   
    99   90   99 1   
   100   90  100 1   
   101   90  101 1   
   102  102  103 1   
   103  102  110 1   
   104  103  104 1   
   105  103  106 1   
   106  103  111 1   
   107  104  105 2   
   108  104  114 1   
   109  106  107 1   
   110  106  112 1   
   111  106  113 1   
   112  107  108 1   
   113  107  109 1   
   114  114  115 1   
   115  114  125 1   
   116  115  116 1   
   117  115  118 1   
   118  115  126 1   
   119  116  117 2   
   120  116  134 1   
   121  118  119 1   
   122  118  127 1   
   123  118  128 1   
   124  119  120 ar  
   125  119  121 ar  
   126  120  122 ar  
   127  120  129 1   
   128  121  123 ar  
   129  121  130 1   
   130  122  124 ar  
   131  122  131 1   
   132  123  124 ar  
   133  123  132 1   
   134  124  133 1   
   135  134  135 1   
   136  134  140 1   
   137  135  136 1   
   138  135  138 1   
   139  135  141 1   
   140  136  137 2   
   141  136  148 1   
   142  138  139 1   
   143  138  142 1   
   144  138  143 1   
   145  139  140 1   
   146  139  144 1   
   147  139  145 1   
   148  140  146 1   
   149  140  147 1   
   150  148  149 1   
   151  148  157 1   
   152  149  150 1   
   153  149  152 1   
   154  149  158 1   
   155  150  151 2   
   156  150  163 1   
   157  152  153 1   
   158  152  159 1   
   159  152  160 1   
   160  153  154 1   
   161  153  161 1   
   162  153  162 1   
   163  154  155 1   
   164  154  156 1   
   165  163  164 1   
   166  163  168 1   
   167  164  165 1   
   168  164  166 1   
   169  164  167 1   
   170  170  171 1   
   171  170  172 1   
   172  173  174 1   
   173  173  175 1   
   174  176  177 1   
   175  176  178 1   
@<TRIPOS>SUBSTRUCTURE
     1 MOL         1 TEMP              0 ****  ****    0 ROOT
