@<TRIPOS>MOLECULE
MOL
  181   177     1     0     0
SMALL
resp


@<TRIPOS>ATOM
      1 C1          1.9900   -0.5490    4.7550 c3        1 MOL     -0.301795
      2 C2          3.3310   -0.5170    3.9610 c         1 MOL      0.721694
      3 O1          3.5210    0.3540    3.1500 o         1 MOL     -0.569629
      4 H1          1.7490   -1.5790    5.0170 hc        1 MOL      0.065707
      5 H2          2.0920    0.0430    5.6650 hc        1 MOL      0.065707
      6 H3          1.1930   -0.1350    4.1380 hc        1 MOL      0.065707
      7 N1          4.2790   -1.3910    4.3760 n         1 MOL     -0.692424
      8 C3          5.6930   -1.3900    3.7960 c3        1 MOL      0.478438
      9 C4          5.8060   -1.9710    2.4160 c         1 MOL      0.286512
     10 O2          6.8600   -1.8620    1.8090 o         1 MOL     -0.474372
     11 C5          6.5550   -2.0630    4.8370 c3        1 MOL     -0.295987
     12 C6          8.0910   -1.7430    4.7030 c         1 MOL      0.776725
     13 O3          8.5370   -0.7170    4.1340 o         1 MOL     -0.738694
     14 O4          8.8760   -2.4990    5.3160 o         1 MOL     -0.738694
     15 H4          4.1420   -2.0450    5.1430 hn        1 MOL      0.317626
     16 H5          6.0220   -0.3640    3.6470 h1        1 MOL     -0.012399
     17 H6          6.3000   -3.1140    4.9360 hc        1 MOL      0.019555
     18 H7          6.2550   -1.5890    5.7700 hc        1 MOL      0.019555
     19 N2          4.7580   -2.7130    1.9650 n         1 MOL     -0.390650
     20 C7          4.6240   -3.3020    0.5840 c3        1 MOL      0.228409
     21 C8          4.5430   -2.2690   -0.5920 c         1 MOL      0.506982
     22 O5          3.4750   -2.1000   -1.2540 o         1 MOL     -0.647363
     23 C9          5.6300   -4.4760    0.4040 c3        1 MOL     -0.492254
     24 H8          3.9560   -2.7270    2.5940 hn        1 MOL      0.242295
     25 H9          3.6410   -3.7480    0.6200 h1        1 MOL      0.105325
     26 H10         5.3140   -5.2830    1.0540 hc        1 MOL      0.141524
     27 H11         5.6220   -4.8100   -0.6280 hc        1 MOL      0.141524
     28 H12         6.6460   -4.0990    0.5470 hc        1 MOL      0.141524
     29 N3          5.6800   -1.5660   -0.9260 n         1 MOL     -0.262084
     30 C10         5.9620   -0.6400   -2.0330 c3        1 MOL      0.010636
     31 C11         6.2840    0.8240   -1.7670 c         1 MOL      0.487283
     32 O6          6.7160    1.5020   -2.7360 o         1 MOL     -0.540109
     33 C12         6.9700   -1.2600   -2.9690 c3        1 MOL     -0.158546
     34 C13         6.6880   -2.6860   -3.2730 c         1 MOL      0.764549
     35 O7          7.5280   -3.5210   -2.9580 o         1 MOL     -0.729304
     36 O8          5.6030   -2.9790   -3.8160 o         1 MOL     -0.729304
     37 H13         6.4370   -1.7360   -0.2790 hn        1 MOL      0.224619
     38 H14         5.0240   -0.5550   -2.5850 h1        1 MOL      0.072787
     39 H15         7.9460   -1.0480   -2.5420 hc        1 MOL      0.019742
     40 H16         6.9000   -0.7840   -3.9570 hc        1 MOL      0.019742
     41 N4          5.9440    1.4250   -0.6610 n         1 MOL     -0.252232
     42 C14         5.8690    2.8750   -0.3430 c3        1 MOL     -0.195175
     43 C15         4.7810    3.6410   -1.1340 c         1 MOL      0.611501
     44 O9          5.0560    4.7140   -1.6820 o         1 MOL     -0.563395
     45 H17         5.4660    0.7990   -0.0320 hn        1 MOL      0.214697
     46 H18         6.8120    3.3670   -0.5730 h1        1 MOL      0.112594
     47 H19         5.6900    2.9030    0.7310 h1        1 MOL      0.112594
     48 N5          3.6510    2.9440   -1.3370 n         1 MOL     -0.356451
     49 C16         2.4900    3.4090   -2.0770 c3        1 MOL     -0.269928
     50 C17         1.8840    4.5760   -1.3280 c         1 MOL      0.592250
     51 O10         1.4890    4.5580   -0.1440 o         1 MOL     -0.556858
     52 C18         1.5140    2.2370   -2.1750 c3        1 MOL     -0.136421
     53 C19         1.9690    1.1010   -3.0630 c         1 MOL      0.570425
     54 N6          2.2330    1.3120   -4.3300 n         1 MOL     -0.666191
     55 O11         2.0520   -0.0510   -2.6270 o         1 MOL     -0.531373
     56 H20         3.6250    2.0500   -0.8730 hn        1 MOL      0.321707
     57 H21         2.7910    3.7160   -3.0840 h1        1 MOL      0.138640
     58 H22         0.6030    2.6490   -2.6120 hc        1 MOL      0.111608
     59 H23         1.2920    1.8330   -1.1870 hc        1 MOL      0.111608
     60 H24         2.4280    2.2240   -4.7080 hn        1 MOL      0.308914
     61 H25         2.5890    0.5320   -4.8710 hn        1 MOL      0.308914
     62 N7          1.7260    5.6370   -2.0980 n         1 MOL     -0.245509
     63 C20         1.2460    6.9400   -1.6450 c3        1 MOL     -0.301879
     64 C21        -0.3400    7.0430   -1.5440 c         1 MOL      0.596503
     65 O12        -1.0260    6.5020   -2.4180 o         1 MOL     -0.512209
     66 H26         1.8940    5.5410   -3.0870 hn        1 MOL      0.247522
     67 H27         1.6140    7.6700   -2.3730 h1        1 MOL      0.136947
     68 H28         1.6690    7.1550   -0.6730 h1        1 MOL      0.136947
     69 N8         -0.8390    7.7070   -0.4960 n         1 MOL     -0.371448
     70 C22        -2.3100    7.8830   -0.1960 c3        1 MOL     -0.476218
     71 C23        -3.0560    6.7110    0.4780 c         1 MOL      0.610816
     72 O13        -4.2230    6.8300    0.6990 o         1 MOL     -0.562294
     73 C24        -2.5940    9.1000    0.6220 c3        1 MOL      0.598899
     74 C25        -2.2610    9.0350    2.0870 c3        1 MOL     -0.212256
     75 O14        -1.8110   10.1510    0.1730 oh        1 MOL     -0.664655
     76 H29        -0.1490    8.2970   -0.0490 hn        1 MOL      0.246267
     77 H30        -2.8220    7.9450   -1.1600 h1        1 MOL      0.200425
     78 H31        -3.6040    9.4970    0.5090 h1        1 MOL      0.014948
     79 H32        -0.9240    9.8180    0.0710 ho        1 MOL      0.370050
     80 H33        -2.0430    9.9920    2.5660 hc        1 MOL      0.039479
     81 H34        -3.1580    8.6320    2.5640 hc        1 MOL      0.039479
     82 H35        -1.4700    8.3420    2.3650 hc        1 MOL      0.039479
     83 N9         -2.3130    5.5940    0.6280 n         1 MOL     -0.218839
     84 C26        -2.7470    4.2570    1.1530 c3        1 MOL     -0.029748
     85 C27        -2.3630    3.1450    0.1870 c         1 MOL      0.416570
     86 O15        -1.7960    3.3680   -0.8740 o         1 MOL     -0.434536
     87 C28        -2.2220    4.1430    2.6230 c3        1 MOL      0.133500
     88 C29        -0.7050    4.0660    2.5480 c3        1 MOL      0.040639
     89 C30        -2.7230    5.2590    3.4840 c3        1 MOL     -0.181969
     90 C31        -0.1290    4.0800    3.9240 c3        1 MOL     -0.353851
     91 H36        -1.3570    5.6440    0.2970 hn        1 MOL      0.150822
     92 H37        -3.8250    4.1200    1.2890 h1        1 MOL      0.045011
     93 H38        -2.5710    3.1880    2.9980 hc        1 MOL     -0.023118
     94 H39        -0.3140    4.9500    2.0450 hc        1 MOL      0.080333
     95 H40        -0.4270    3.1540    2.0160 hc        1 MOL      0.080333
     96 H41        -3.7790    5.4840    3.3240 hc        1 MOL      0.038835
     97 H42        -2.6260    5.0560    4.5530 hc        1 MOL      0.038835
     98 H43        -2.2150    6.1620    3.1440 hc        1 MOL      0.038835
     99 H44         0.8810    3.6810    3.9000 hc        1 MOL      0.084435
    100 H45        -0.0970    5.1400    4.1800 hc        1 MOL      0.084435
    101 H46        -0.6640    3.4200    4.6150 hc        1 MOL      0.084435
    102 N10        -2.6020    1.9010    0.6650 n         1 MOL     -0.472752
    103 C32        -2.2850    0.6780   -0.0670 c3        1 MOL      0.100183
    104 C33        -3.3770   -0.3900   -0.0420 c         1 MOL      0.711426
    105 O16        -3.1720   -1.5800    0.2700 o         1 MOL     -0.662139
    106 C34        -0.9960    0.1770    0.4730 c3        1 MOL     -0.150912
    107 C35        -0.1930   -0.7680   -0.4240 c         1 MOL      0.840269
    108 O17         0.9780   -1.0400   -0.1220 o         1 MOL     -0.793837
    109 O18        -0.6450   -1.3110   -1.4170 o         1 MOL     -0.793837
    110 H47        -2.9930    1.7940    1.5870 hn        1 MOL      0.294946
    111 H48        -2.0200    0.9480   -1.0910 h1        1 MOL      0.010425
    112 H49        -1.1930   -0.3250    1.4150 hc        1 MOL      0.042125
    113 H50        -0.3300    1.0150    0.6840 hc        1 MOL      0.042125
    114 N11        -4.6410    0.0710   -0.3220 n         1 MOL     -0.834765
    115 C36        -5.7530   -0.8050   -0.7260 c3        1 MOL      0.555935
    116 C37        -5.9580   -2.0400    0.1280 c         1 MOL      0.413472
    117 O19        -5.9520   -1.9210    1.3260 o         1 MOL     -0.524077
    118 C38        -7.0120    0.0740   -0.7810 c3        1 MOL     -0.283423
    119 C39        -8.3650   -0.7060   -0.9410 ca        1 MOL      0.114657
    120 C40        -8.8620   -1.0760   -2.2170 ca        1 MOL     -0.198180
    121 C41        -9.0470   -1.0950    0.2170 ca        1 MOL     -0.198180
    122 C42       -10.1190   -1.7480   -2.2620 ca        1 MOL     -0.053701
    123 C43       -10.3220   -1.6660    0.1430 ca        1 MOL     -0.053701
    124 C44       -10.8340   -1.9660   -1.0960 ca        1 MOL     -0.196348
    125 H51        -4.6220    1.0180   -0.6760 hn        1 MOL      0.357852
    126 H52        -5.4800   -1.1400   -1.7340 h1        1 MOL     -0.031250
    127 H53        -6.8710    0.6510   -1.6960 hc        1 MOL      0.084815
    128 H54        -7.0990    0.7560    0.0640 hc        1 MOL      0.084815
    129 H55        -8.3720   -0.8620   -3.1510 ha        1 MOL      0.131092
    130 H56        -8.5830   -0.9600    1.1790 ha        1 MOL      0.131092
    131 H57       -10.4930   -2.1700   -3.1780 ha        1 MOL      0.098467
    132 H58       -10.9480   -1.8620    0.9980 ha        1 MOL      0.098467
    133 H59       -11.7340   -2.5620   -1.0640 ha        1 MOL      0.120440
    134 N12        -5.9700   -3.2930   -0.5380 n         1 MOL     -0.200016
    135 C45        -6.0290   -4.5210    0.2220 c3        1 MOL      0.119234
    136 C46        -4.9760   -4.9080    1.2750 c         1 MOL      0.129926
    137 O20        -5.2940   -5.7550    2.1720 o         1 MOL     -0.513534
    138 C47        -6.0950   -5.5760   -0.8960 c3        1 MOL     -0.050893
    139 C48        -6.6040   -4.8340   -2.1830 c3        1 MOL      0.021790
    140 C49        -5.9650   -3.5190   -1.9660 c3        1 MOL      0.053204
    141 H60        -6.9650   -4.4410    0.7710 h1        1 MOL      0.066492
    142 H61        -5.0990   -5.9940   -1.0490 hc        1 MOL      0.029703
    143 H62        -6.8370   -6.3410   -0.6440 hc        1 MOL      0.029703
    144 H63        -6.3400   -5.3880   -3.0850 hc        1 MOL      0.000095
    145 H64        -7.6800   -4.7110   -2.1240 hc        1 MOL      0.000095
    146 H65        -4.9120   -3.5350   -2.2630 h1        1 MOL     -0.009133
    147 H66        -6.4890   -2.7390   -2.5200 h1        1 MOL     -0.009133
    148 N13        -3.8790   -4.1830    1.3470 n         1 MOL      0.032457
    149 C50        -2.8890   -4.3890    2.4680 c3        1 MOL     -0.115809
    150 C51        -2.9910   -3.3840    3.5980 c         1 MOL      0.424085
    151 O21        -2.5660   -3.6430    4.6960 o         1 MOL     -0.531606
    152 C52        -1.5050   -4.1290    1.8820 c3        1 MOL      0.090839
    153 C53        -1.2970   -5.1240    0.7100 c3        1 MOL     -0.083400
    154 C54         0.1220   -4.9360    0.0710 c         1 MOL      0.670600
    155 O22         1.1270   -5.3500    0.6490 o         1 MOL     -0.712622
    156 O23         0.2040   -4.2450   -0.9780 o         1 MOL     -0.712622
    157 H67        -3.6220   -3.6320    0.5400 hn        1 MOL      0.281719
    158 H68        -3.0330   -5.3990    2.8440 h1        1 MOL      0.119734
    159 H69        -0.8010   -4.3520    2.6760 hc        1 MOL      0.021237
    160 H70        -1.4590   -3.1290    1.4400 hc        1 MOL      0.021237
    161 H71        -1.9860   -4.9600   -0.1130 hc        1 MOL     -0.030280
    162 H72        -1.4360   -6.1430    1.0550 hc        1 MOL     -0.030280
    163 N14        -3.5850   -2.2490    3.3090 n         1 MOL     -0.217613
    164 C55        -4.1590   -1.2290    4.2040 c3        1 MOL     -0.312420
    165 H73        -4.6980   -1.7200    5.0140 h1        1 MOL      0.118197
    166 H74        -3.3580   -0.6170    4.6190 h1        1 MOL      0.118197
    167 H75        -4.8460   -0.5960    3.6410 h1        1 MOL      0.118197
    168 H76        -3.8440   -2.0480    2.3590 hn        1 MOL      0.294773
    169 Ca1         1.2560   -2.5240   -2.5690 Ca        1 MOL      1.781349
    170 O24         0.2030   -1.3530   -4.8290 oh        1 MOL     -0.867522
    171 H77        -0.0740   -0.4520   -5.0080 ho        1 MOL      0.415856
    172 H78        -0.0530   -1.8420   -5.6130 ho        1 MOL      0.415856
    173 O25         2.6280   -4.8520   -2.4550 oh        1 MOL     -0.867522
    174 H79         2.4730   -5.4930   -1.7580 ho        1 MOL      0.415856
    175 H80         3.4790   -5.0960   -2.8210 ho        1 MOL      0.415856
    176 O26         3.2290   -2.4680   -4.3430 oh        1 MOL     -0.867522
    177 H81         3.3340   -1.8710   -5.0720 ho        1 MOL      0.415856
    178 H82         4.1070   -2.7900   -4.1610 ho        1 MOL      0.415856
    179 O27        -0.1800   -4.2720   -4.1570 oh        1 MOL     -0.867522
    180 H83        -0.0910   -5.1860   -3.9120 ho        1 MOL      0.415856
    181 H84        -0.8860   -4.2540   -4.8080 ho        1 MOL      0.415856
@<TRIPOS>BOND
     1    1    2 1   
     2    1    4 1   
     3    1    5 1   
     4    1    6 1   
     5    2    3 2   
     6    2    7 1   
     7    7    8 1   
     8    7   15 1   
     9    8    9 1   
    10    8   11 1   
    11    8   16 1   
    12    9   10 2   
    13    9   19 1   
    14   11   12 1   
    15   11   17 1   
    16   11   18 1   
    17   12   13 1   
    18   12   14 1   
    19   19   20 1   
    20   19   24 1   
    21   20   21 1   
    22   20   23 1   
    23   20   25 1   
    24   21   22 2   
    25   21   29 1   
    26   23   26 1   
    27   23   27 1   
    28   23   28 1   
    29   29   30 1   
    30   29   37 1   
    31   30   31 1   
    32   30   33 1   
    33   30   38 1   
    34   31   32 2   
    35   31   41 1   
    36   33   34 1   
    37   33   39 1   
    38   33   40 1   
    39   34   35 1   
    40   34   36 1   
    41   41   42 1   
    42   41   45 1   
    43   42   43 1   
    44   42   46 1   
    45   42   47 1   
    46   43   44 2   
    47   43   48 1   
    48   48   49 1   
    49   48   56 1   
    50   49   50 1   
    51   49   52 1   
    52   49   57 1   
    53   50   51 2   
    54   50   62 1   
    55   52   53 1   
    56   52   58 1   
    57   52   59 1   
    58   53   54 1   
    59   53   55 2   
    60   54   60 1   
    61   54   61 1   
    62   62   63 1   
    63   62   66 1   
    64   63   64 1   
    65   63   67 1   
    66   63   68 1   
    67   64   65 2   
    68   64   69 1   
    69   69   70 1   
    70   69   76 1   
    71   70   71 1   
    72   70   73 1   
    73   70   77 1   
    74   71   72 2   
    75   71   83 1   
    76   73   74 1   
    77   73   75 1   
    78   73   78 1   
    79   74   80 1   
    80   74   81 1   
    81   74   82 1   
    82   75   79 1   
    83   83   84 1   
    84   83   91 1   
    85   84   85 1   
    86   84   87 1   
    87   84   92 1   
    88   85   86 2   
    89   85  102 1   
    90   87   88 1   
    91   87   89 1   
    92   87   93 1   
    93   88   90 1   
    94   88   94 1   
    95   88   95 1   
    96   89   96 1   
    97   89   97 1   
    98   89   98 1   
    99   90   99 1   
   100   90  100 1   
   101   90  101 1   
   102  102  103 1   
   103  102  110 1   
   104  103  104 1   
   105  103  106 1   
   106  103  111 1   
   107  104  105 2   
   108  104  114 1   
   109  106  107 1   
   110  106  112 1   
   111  106  113 1   
   112  107  108 1   
   113  107  109 1   
   114  114  115 1   
   115  114  125 1   
   116  115  116 1   
   117  115  118 1   
   118  115  126 1   
   119  116  117 2   
   120  116  134 1   
   121  118  119 1   
   122  118  127 1   
   123  118  128 1   
   124  119  120 ar  
   125  119  121 ar  
   126  120  122 ar  
   127  120  129 1   
   128  121  123 ar  
   129  121  130 1   
   130  122  124 ar  
   131  122  131 1   
   132  123  124 ar  
   133  123  132 1   
   134  124  133 1   
   135  134  135 1   
   136  134  140 1   
   137  135  136 1   
   138  135  138 1   
   139  135  141 1   
   140  136  137 2   
   141  136  148 1   
   142  138  139 1   
   143  138  142 1   
   144  138  143 1   
   145  139  140 1   
   146  139  144 1   
   147  139  145 1   
   148  140  146 1   
   149  140  147 1   
   150  148  149 1   
   151  148  157 1   
   152  149  150 1   
   153  149  152 1   
   154  149  158 1   
   155  150  151 2   
   156  150  163 1   
   157  152  153 1   
   158  152  159 1   
   159  152  160 1   
   160  153  154 1   
   161  153  161 1   
   162  153  162 1   
   163  154  155 1   
   164  154  156 1   
   165  163  164 1   
   166  163  168 1   
   167  164  165 1   
   168  164  166 1   
   169  164  167 1   
   170  170  171 1   
   171  170  172 1   
   172  173  174 1   
   173  173  175 1   
   174  176  177 1   
   175  176  178 1   
   176  179  180 1   
   177  179  181 1   
@<TRIPOS>SUBSTRUCTURE
     1 MOL         1 TEMP              0 ****  ****    0 ROOT
