@<TRIPOS>MOLECULE
MOL
  195   189     1     0     0
SMALL
resp


@<TRIPOS>ATOM
      1 C1          4.9080    3.1990    3.3810 c3        1 MOL     -0.266395
      2 C2          3.9790    2.9550    2.2210 c         1 MOL      0.742166
      3 O1          3.1990    1.9840    2.3020 o         1 MOL     -0.535324
      4 H1          5.0040    4.2720    3.5490 hc        1 MOL      0.048966
      5 H2          4.5050    2.7270    4.2770 hc        1 MOL      0.048966
      6 H3          5.8890    2.7780    3.1580 hc        1 MOL      0.048966
      7 N1          3.9730    3.8060    1.1950 n         1 MOL     -0.679357
      8 C3          3.2380    3.7560   -0.0520 c3        1 MOL     -0.041247
      9 C4          1.7480    3.7840    0.1360 c         1 MOL      0.564190
     10 O2          1.0660    3.0470   -0.5770 o         1 MOL     -0.559237
     11 C5          3.7600    2.6310   -0.9580 c3        1 MOL      0.303382
     12 C6          5.2580    2.7920   -1.0370 c         1 MOL      0.506934
     13 O3          6.0320    2.0320   -0.4030 o         1 MOL     -0.748462
     14 O4          5.8600    3.4860   -1.8010 o         1 MOL     -0.748462
     15 H4          4.3790    4.7060    1.4260 hn        1 MOL      0.324668
     16 H5          3.4490    4.6700   -0.5890 h1        1 MOL      0.076997
     17 H6          3.3340    2.6960   -1.9620 hc        1 MOL     -0.024234
     18 H7          3.4510    1.6350   -0.6510 hc        1 MOL     -0.024234
     19 N2          1.2400    4.5920    1.1220 n         1 MOL     -0.271718
     20 C7         -0.1630    4.7130    1.5240 c3        1 MOL     -0.450641
     21 C8         -0.8180    5.8510    0.6500 c         1 MOL      0.562902
     22 O5         -0.1530    6.8500    0.2580 o         1 MOL     -0.607363
     23 C9         -0.3310    4.9400    3.0460 c3        1 MOL      0.290994
     24 C10         0.2080    6.3220    3.5540 c3        1 MOL      0.057952
     25 C11         0.3190    3.7060    3.6810 c3        1 MOL     -0.472122
     26 C12         0.1410    6.5750    5.0490 c3        1 MOL     -0.298370
     27 H8          1.9150    5.2280    1.5130 hn        1 MOL      0.220241
     28 H9         -0.5820    3.7410    1.2920 h1        1 MOL      0.216881
     29 H10        -1.4090    4.9870    3.1970 hc        1 MOL      0.030728
     30 H11        -0.3210    7.1140    3.0410 hc        1 MOL      0.015472
     31 H12         1.2810    6.4010    3.3430 hc        1 MOL      0.015472
     32 H13        -0.0720    2.8040    3.2090 hc        1 MOL      0.130626
     33 H14         1.3980    3.6540    3.4770 hc        1 MOL      0.130626
     34 H15         0.1440    3.5830    4.7430 hc        1 MOL      0.130626
     35 H16         0.4900    5.7150    5.6130 hc        1 MOL      0.062326
     36 H17         0.7090    7.4840    5.2010 hc        1 MOL      0.062326
     37 H18        -0.8830    6.7980    5.3610 hc        1 MOL      0.062326
     38 N3         -2.0490    5.7440    0.2690 n         1 MOL     -0.319449
     39 C13        -3.0590    4.7980    0.7140 c3        1 MOL      0.019597
     40 C14        -3.5510    3.8000   -0.3590 c         1 MOL      0.423214
     41 O6         -4.2270    2.7990    0.0140 o         1 MOL     -0.489376
     42 C15        -4.3110    5.5690    1.2460 c3        1 MOL     -0.124851
     43 C16        -4.9090    6.7020    0.3790 c         1 MOL      0.697478
     44 O7         -5.8590    7.2900    0.8810 o         1 MOL     -0.701426
     45 O8         -4.6600    6.8250   -0.8320 o         1 MOL     -0.701426
     46 H19        -2.3700    6.4860   -0.3320 hn        1 MOL      0.217285
     47 H20        -2.6580    4.1290    1.4830 h1        1 MOL      0.010742
     48 H21        -4.1540    6.0320    2.2300 hc        1 MOL      0.024615
     49 H22        -5.0710    4.8030    1.3400 hc        1 MOL      0.024615
     50 N4         -3.3520    4.0950   -1.6250 n         1 MOL     -0.203091
     51 C17        -3.4260    3.0540   -2.6760 c3        1 MOL     -0.268990
     52 C18        -4.8890    2.7580   -3.0700 c         1 MOL      0.637814
     53 O9         -5.7450    3.5960   -3.3360 o         1 MOL     -0.557712
     54 H23        -2.9260    4.9680   -1.9020 hn        1 MOL      0.284339
     55 H24        -2.9310    2.1250   -2.3940 h1        1 MOL      0.113013
     56 H25        -2.9690    3.4260   -3.5890 h1        1 MOL      0.113013
     57 N5         -5.1820    1.4870   -3.2490 n         1 MOL     -0.508774
     58 C19        -6.4860    1.0020   -3.7040 c3        1 MOL      0.141116
     59 C20        -7.6110    1.0730   -2.6900 c         1 MOL      0.337870
     60 O10        -8.7890    0.9380   -3.0150 o         1 MOL     -0.535540
     61 C21        -6.4020   -0.2950   -4.4290 c3        1 MOL     -0.304076
     62 C22        -5.6750   -1.4730   -3.7290 c         1 MOL      0.715531
     63 O11        -5.4360   -1.3690   -2.4990 o         1 MOL     -0.705424
     64 O12        -5.4620   -2.5570   -4.3300 o         1 MOL     -0.705424
     65 H26        -4.4940    0.7760   -3.0620 hn        1 MOL      0.299581
     66 H27        -6.6890    1.6570   -4.5560 h1        1 MOL      0.081541
     67 H28        -5.9370   -0.1580   -5.4010 hc        1 MOL      0.055308
     68 H29        -7.4200   -0.5270   -4.7230 hc        1 MOL      0.055308
     69 N6         -7.2550    1.2590   -1.4400 n         1 MOL     -0.024460
     70 C23        -8.1230    1.0490   -0.2880 c3        1 MOL     -0.393255
     71 C24        -8.3920   -0.4570    0.1620 c         1 MOL      0.592510
     72 O13        -8.9930   -0.7400    1.2080 o         1 MOL     -0.581565
     73 H30        -6.2800    1.3340   -1.2170 hn        1 MOL      0.139038
     74 H31        -9.0840    1.5600   -0.3680 h1        1 MOL      0.161487
     75 H32        -7.4850    1.5570    0.4370 h1        1 MOL      0.161487
     76 N7         -7.8820   -1.3870   -0.6220 n         1 MOL     -0.305085
     77 C25        -7.7280   -2.8730   -0.4270 c3        1 MOL      0.008966
     78 C26        -7.2320   -3.2960    0.9920 c         1 MOL      0.644720
     79 O14        -7.6640   -4.2970    1.5460 o         1 MOL     -0.524927
     80 C27        -9.0550   -3.4080   -0.9510 c3        1 MOL      0.017557
     81 C28        -9.1760   -3.3050   -2.4680 c3        1 MOL     -0.067775
     82 C29       -10.2740   -4.0470   -3.1000 c         1 MOL      0.648839
     83 N8        -10.5750   -3.7540   -4.3930 n         1 MOL     -0.853700
     84 O15       -10.8400   -5.0010   -2.5910 o         1 MOL     -0.565943
     85 H33        -7.5460   -0.9590   -1.4780 hn        1 MOL      0.243264
     86 H34        -6.9910   -3.2740   -1.1170 h1        1 MOL      0.108609
     87 H35        -9.9400   -2.9030   -0.5430 hc        1 MOL     -0.002310
     88 H36        -9.0900   -4.4440   -0.6150 hc        1 MOL     -0.002310
     89 H37        -8.2450   -3.5800   -2.9750 hc        1 MOL      0.047558
     90 H38        -9.2970   -2.2430   -2.7240 hc        1 MOL      0.047558
     91 H39        -9.9930   -3.1160   -4.9100 hn        1 MOL      0.361140
     92 H40       -11.3750   -4.1760   -4.8460 hn        1 MOL      0.361140
     93 N9         -6.3130   -2.5020    1.6080 n         1 MOL     -0.655940
     94 C30        -5.7370   -2.7000    2.9820 c3        1 MOL      0.130093
     95 C31        -4.2790   -2.4020    3.2820 c         1 MOL      0.361486
     96 O16        -3.6920   -2.9180    4.2500 o         1 MOL     -0.538357
     97 C32        -6.4170   -1.8040    4.0700 c3        1 MOL      0.340985
     98 C33        -6.5270   -0.2440    3.8020 c3        1 MOL     -0.364316
     99 C34        -7.8070   -2.3840    4.4800 c3        1 MOL     -0.364316
    100 H41        -6.0120   -1.6850    1.0930 hn        1 MOL      0.275064
    101 H42        -5.9020   -3.7240    3.3080 h1        1 MOL      0.079683
    102 H43        -5.8400   -2.0120    4.9670 hc        1 MOL     -0.038112
    103 H44        -5.4950    0.0870    3.7320 hc        1 MOL      0.078913
    104 H45        -7.1260    0.0530    2.9420 hc        1 MOL      0.078913
    105 H46        -6.9060    0.2060    4.7200 hc        1 MOL      0.078913
    106 H47        -8.5080   -2.2800    3.6540 hc        1 MOL      0.078913
    107 H48        -7.6500   -3.4540    4.6010 hc        1 MOL      0.078913
    108 H49        -8.1490   -1.9330    5.4180 hc        1 MOL      0.078913
    109 N10        -3.6710   -1.5380    2.4540 n         1 MOL     -0.183537
    110 C35        -2.2460   -1.2110    2.4010 c3        1 MOL      0.019470
    111 C36        -1.5170   -1.9880    1.2300 c         1 MOL      0.618343
    112 O17        -2.2160   -2.4590    0.2740 o         1 MOL     -0.533381
    113 C37        -2.1620    0.3280    2.1720 c3        1 MOL     -0.468399
    114 C38        -2.7520    1.2500    3.1980 c         1 MOL      0.793977
    115 N11        -3.6930    2.0610    2.8350 n         1 MOL     -0.736163
    116 O18        -2.3740    1.4050    4.3250 o         1 MOL     -0.618717
    117 H50        -4.2890   -1.1720    1.7410 hn        1 MOL      0.230122
    118 H51        -1.8660   -1.5400    3.3740 h1        1 MOL      0.089463
    119 H52        -2.4570    0.5880    1.1490 hc        1 MOL      0.139393
    120 H53        -1.0990    0.5580    2.1680 hc        1 MOL      0.139393
    121 H54        -3.9590    2.1310    1.8570 hn        1 MOL      0.323509
    122 H55        -4.0060    2.7790    3.4680 hn        1 MOL      0.323509
    123 N12        -0.1330   -2.1450    1.2490 n         1 MOL     -0.638273
    124 C39         0.6290   -2.8630    0.2180 c3        1 MOL      0.189151
    125 C40         1.9720   -3.2920    0.7750 c         1 MOL      0.659475
    126 O19         2.5480   -2.5290    1.5530 o         1 MOL     -0.565085
    127 C41         0.9040   -1.8330   -0.9640 c3        1 MOL     -0.252126
    128 C42         2.0240   -2.3510   -1.8920 ca        1 MOL     -0.020146
    129 C43         3.1110   -1.4950   -2.1090 ca        1 MOL     -0.129405
    130 C44         1.8560   -3.6000   -2.5380 ca        1 MOL     -0.129405
    131 C45         4.0670   -1.8700   -3.0840 ca        1 MOL     -0.243061
    132 C46         2.8410   -4.0050   -3.4400 ca        1 MOL     -0.243061
    133 C47         3.8550   -3.1180   -3.7540 ca        1 MOL      0.303370
    134 O20         4.7290   -3.5210   -4.6610 oh        1 MOL     -0.512309
    135 H56         0.3310   -1.6570    1.9980 hn        1 MOL      0.330060
    136 H57         0.0280   -3.6980   -0.1390 h1        1 MOL      0.062663
    137 H58         1.2110   -0.9030   -0.4910 hc        1 MOL      0.132722
    138 H59         0.0120   -1.5600   -1.5230 hc        1 MOL      0.132722
    139 H60         3.3570   -0.5520   -1.6370 ha        1 MOL      0.139011
    140 H61         1.0050   -4.2150   -2.2810 ha        1 MOL      0.139011
    141 H62         4.8990   -1.2130   -3.2870 ha        1 MOL      0.146273
    142 H63         2.7060   -4.9250   -4.0040 ha        1 MOL      0.146273
    143 H64         5.4760   -2.9250   -4.7670 ho        1 MOL      0.391454
    144 N13         2.5140   -4.5180    0.4740 n         1 MOL     -0.827179
    145 C48         3.8690   -4.8990    0.8760 c3        1 MOL      0.572459
    146 C49         4.6180   -5.4690   -0.4170 c         1 MOL      0.355344
    147 O21         4.5600   -6.6360   -0.7970 o         1 MOL     -0.542133
    148 C50         3.7140   -5.9750    2.0210 c3        1 MOL     -0.006215
    149 C51         5.1330   -6.4680    2.4580 c3        1 MOL     -0.206074
    150 C52         5.0450   -7.5010    3.5420 c         1 MOL      0.718746
    151 O22         5.4120   -7.3170    4.7100 o         1 MOL     -0.678355
    152 O23         4.6820   -8.5970    3.1320 o         1 MOL     -0.678355
    153 H65         2.0490   -5.0070   -0.2750 hn        1 MOL      0.341405
    154 H66         4.3820   -4.0570    1.3540 h1        1 MOL     -0.072942
    155 H67         3.0060   -6.7440    1.7050 hc        1 MOL      0.013374
    156 H68         3.3270   -5.4430    2.8880 hc        1 MOL      0.013374
    157 H69         5.7880   -5.6830    2.8320 hc        1 MOL      0.039452
    158 H70         5.6160   -6.8960    1.5770 hc        1 MOL      0.039452
    159 N14         5.6140   -4.7470   -0.8540 n         1 MOL     -0.193489
    160 C53         6.1770   -3.4770   -0.3760 c3        1 MOL     -0.256745
    161 C54         6.8230   -3.3100    1.0220 c         1 MOL      0.539864
    162 O24         7.5870   -4.1720    1.4220 o         1 MOL     -0.535072
    163 C55         7.0990   -2.9420   -1.4770 c3        1 MOL      0.052758
    164 C56         7.3600   -1.5140   -1.3130 c3        1 MOL     -0.345459
    165 C57         8.0500   -0.7800   -2.5060 c         1 MOL      0.809057
    166 O25         8.4920   -1.5160   -3.4180 o         1 MOL     -0.718561
    167 O26         8.0440    0.4730   -2.5060 o         1 MOL     -0.718561
    168 H71         6.2240   -5.2400   -1.5000 hn        1 MOL      0.229772
    169 H72         5.2690   -2.8760   -0.3340 h1        1 MOL      0.097070
    170 H73         6.6500   -3.2470   -2.4160 hc        1 MOL      0.033923
    171 H74         8.0070   -3.5330   -1.3650 hc        1 MOL      0.033923
    172 H75         7.9440   -1.4620   -0.3880 hc        1 MOL      0.066494
    173 H76         6.3960   -1.0180   -1.3080 hc        1 MOL      0.066494
    174 N15         6.5120   -2.1890    1.6960 n         1 MOL     -0.155620
    175 C58         7.0060   -1.8910    3.0640 c3        1 MOL     -0.311232
    176 H77         6.7610   -2.7210    3.7270 h1        1 MOL      0.118056
    177 H78         8.0870   -1.7540    3.0390 h1        1 MOL      0.118056
    178 H79         6.5320   -0.9800    3.4310 h1        1 MOL      0.118056
    179 H80         5.9200   -1.4990    1.2570 hn        1 MOL      0.234016
    180 Ca1         8.2630    2.7150   -1.4020 Ca        1 MOL      1.694789
    181 O27        10.8020    1.3940   -1.6060 oh        1 MOL     -0.804588
    182 H81        11.4790    2.0420   -1.4010 ho        1 MOL      0.381042
    183 H82        11.2730    0.5750   -1.7340 ho        1 MOL      0.381042
    184 O28        10.7900    3.9970   -0.5170 oh        1 MOL     -0.804588
    185 H83        11.2230    4.7740   -0.8630 ho        1 MOL      0.381042
    186 H84        11.0680    3.9510    0.4010 ho        1 MOL      0.381042
    187 O29         8.7690    1.2760    0.9920 oh        1 MOL     -0.804588
    188 H85         8.1320    1.5370    1.6610 ho        1 MOL      0.381042
    189 H86         9.5510    1.0370    1.4870 ho        1 MOL      0.381042
    190 O30         9.9700    3.1040   -3.7260 oh        1 MOL     -0.804588
    191 H87         9.9080    3.8930   -4.2550 ho        1 MOL      0.381042
    192 H88         9.8970    2.3850   -4.3520 ho        1 MOL      0.381042
    193 O31         7.9530    5.2310   -3.0500 oh        1 MOL     -0.804588
    194 H89         8.3350    6.0840   -3.2740 ho        1 MOL      0.381042
    195 H90         7.1920    5.1420   -3.6130 ho        1 MOL      0.381042
@<TRIPOS>BOND
     1    1    2 1   
     2    1    4 1   
     3    1    5 1   
     4    1    6 1   
     5    2    3 2   
     6    2    7 1   
     7    7    8 1   
     8    7   15 1   
     9    8    9 1   
    10    8   11 1   
    11    8   16 1   
    12    9   10 2   
    13    9   19 1   
    14   11   12 1   
    15   11   17 1   
    16   11   18 1   
    17   12   13 1   
    18   12   14 1   
    19   19   20 1   
    20   19   27 1   
    21   20   21 1   
    22   20   23 1   
    23   20   28 1   
    24   21   22 2   
    25   21   38 1   
    26   23   24 1   
    27   23   25 1   
    28   23   29 1   
    29   24   26 1   
    30   24   30 1   
    31   24   31 1   
    32   25   32 1   
    33   25   33 1   
    34   25   34 1   
    35   26   35 1   
    36   26   36 1   
    37   26   37 1   
    38   38   39 1   
    39   38   46 1   
    40   39   40 1   
    41   39   42 1   
    42   39   47 1   
    43   40   41 2   
    44   40   50 1   
    45   42   43 1   
    46   42   48 1   
    47   42   49 1   
    48   43   44 1   
    49   43   45 1   
    50   50   51 1   
    51   50   54 1   
    52   51   52 1   
    53   51   55 1   
    54   51   56 1   
    55   52   53 2   
    56   52   57 1   
    57   57   58 1   
    58   57   65 1   
    59   58   59 1   
    60   58   61 1   
    61   58   66 1   
    62   59   60 2   
    63   59   69 1   
    64   61   62 1   
    65   61   67 1   
    66   61   68 1   
    67   62   63 1   
    68   62   64 1   
    69   69   70 1   
    70   69   73 1   
    71   70   71 1   
    72   70   74 1   
    73   70   75 1   
    74   71   72 2   
    75   71   76 1   
    76   76   77 1   
    77   76   85 1   
    78   77   78 1   
    79   77   80 1   
    80   77   86 1   
    81   78   79 2   
    82   78   93 1   
    83   80   81 1   
    84   80   87 1   
    85   80   88 1   
    86   81   82 1   
    87   81   89 1   
    88   81   90 1   
    89   82   83 1   
    90   82   84 2   
    91   83   91 1   
    92   83   92 1   
    93   93   94 1   
    94   93  100 1   
    95   94   95 1   
    96   94   97 1   
    97   94  101 1   
    98   95   96 2   
    99   95  109 1   
   100   97   98 1   
   101   97   99 1   
   102   97  102 1   
   103   98  103 1   
   104   98  104 1   
   105   98  105 1   
   106   99  106 1   
   107   99  107 1   
   108   99  108 1   
   109  109  110 1   
   110  109  117 1   
   111  110  111 1   
   112  110  113 1   
   113  110  118 1   
   114  111  112 2   
   115  111  123 1   
   116  113  114 1   
   117  113  119 1   
   118  113  120 1   
   119  114  115 1   
   120  114  116 2   
   121  115  121 1   
   122  115  122 1   
   123  123  124 1   
   124  123  135 1   
   125  124  125 1   
   126  124  127 1   
   127  124  136 1   
   128  125  126 2   
   129  125  144 1   
   130  127  128 1   
   131  127  137 1   
   132  127  138 1   
   133  128  129 ar  
   134  128  130 ar  
   135  129  131 ar  
   136  129  139 1   
   137  130  132 ar  
   138  130  140 1   
   139  131  133 ar  
   140  131  141 1   
   141  132  133 ar  
   142  132  142 1   
   143  133  134 1   
   144  134  143 1   
   145  144  145 1   
   146  144  153 1   
   147  145  146 1   
   148  145  148 1   
   149  145  154 1   
   150  146  147 2   
   151  146  159 1   
   152  148  149 1   
   153  148  155 1   
   154  148  156 1   
   155  149  150 1   
   156  149  157 1   
   157  149  158 1   
   158  150  151 1   
   159  150  152 1   
   160  159  160 1   
   161  159  168 1   
   162  160  161 1   
   163  160  163 1   
   164  160  169 1   
   165  161  162 2   
   166  161  174 1   
   167  163  164 1   
   168  163  170 1   
   169  163  171 1   
   170  164  165 1   
   171  164  172 1   
   172  164  173 1   
   173  165  166 1   
   174  165  167 1   
   175  174  175 1   
   176  174  179 1   
   177  175  176 1   
   178  175  177 1   
   179  175  178 1   
   180  181  182 1   
   181  181  183 1   
   182  184  185 1   
   183  184  186 1   
   184  187  188 1   
   185  187  189 1   
   186  190  191 1   
   187  190  192 1   
   188  193  194 1   
   189  193  195 1   
@<TRIPOS>SUBSTRUCTURE
     1 MOL         1 TEMP              0 ****  ****    0 ROOT
