@<TRIPOS>MOLECULE
MOL
  192   187     1     0     0
SMALL
resp


@<TRIPOS>ATOM
      1 C1         12.3500   -5.7840    0.7900 c3        1 MOL     -0.383723
      2 C2         12.1080   -4.2720    0.6450 c         1 MOL      0.655709
      3 O1         13.0330   -3.4840    0.7160 o         1 MOL     -0.532153
      4 H1         12.7170   -5.9980    1.7940 hc        1 MOL      0.103643
      5 H2         11.4170   -6.3200    0.6230 hc        1 MOL      0.103643
      6 H3         13.0910   -6.1060    0.0580 hc        1 MOL      0.103643
      7 N1         10.8190   -3.8470    0.3340 n         1 MOL     -0.280604
      8 C3         10.4470   -2.4860    0.0990 c3        1 MOL     -0.501715
      9 C4          8.9930   -2.1080    0.6930 c         1 MOL      0.783758
     10 O2          8.0740   -2.8350    0.3420 o         1 MOL     -0.687570
     11 C5         10.5200   -2.2410   -1.4470 c3        1 MOL      0.268712
     12 C6         10.0440   -3.4070   -2.3230 c         1 MOL      0.459805
     13 O3          8.8590   -3.7910   -2.1340 o         1 MOL     -0.636246
     14 O4         10.8280   -3.9200   -3.2090 o         1 MOL     -0.636246
     15 H4         10.0230   -4.4740    0.3830 hn        1 MOL      0.168839
     16 H5         11.2600   -1.8640    0.4710 h1        1 MOL      0.138851
     17 H6         11.5360   -2.0080   -1.7740 hc        1 MOL      0.003532
     18 H7          9.9560   -1.3430   -1.6920 hc        1 MOL      0.003532
     19 N2          8.8530   -1.0280    1.4700 n         1 MOL     -0.586605
     20 C7          7.5830   -0.3690    1.8250 c3        1 MOL      0.096758
     21 C8          7.0140    0.4660    0.6330 c         1 MOL      0.695198
     22 O5          7.8300    1.1740   -0.0070 o         1 MOL     -0.561272
     23 C9          7.7650    0.5070    3.1180 c3        1 MOL     -0.467966
     24 C10         7.7350   -0.3110    4.3680 c3        1 MOL      0.258847
     25 C11         7.3620    0.5770    5.6330 c3        1 MOL      0.013966
     26 C12         7.1240   -0.3480    6.9030 c3        1 MOL     -0.061199
     27 N3          8.4730   -0.8020    7.4020 n4        1 MOL     -0.158332
     28 H8          9.7060   -0.6720    1.8660 hn        1 MOL      0.358782
     29 H9          6.8540   -1.1630    1.9850 h1        1 MOL      0.126433
     30 H10         6.8780    1.1210    3.2040 hc        1 MOL      0.143103
     31 H11         8.6270    1.1680    3.1250 hc        1 MOL      0.143103
     32 H12         8.6920   -0.7950    4.5210 hc        1 MOL     -0.058249
     33 H13         6.9930   -1.0720    4.1500 hc        1 MOL     -0.058249
     34 H14         6.4130    1.0890    5.4490 hc        1 MOL      0.039006
     35 H15         8.1420    1.3030    5.8480 hc        1 MOL      0.039006
     36 H16         6.4920   -1.2060    6.6830 hx        1 MOL      0.089626
     37 H17         6.7170    0.3030    7.6770 hx        1 MOL      0.089626
     38 H18         8.7580   -1.7560    7.2250 hn        1 MOL      0.196612
     39 H19         9.2020   -0.1180    7.2190 hn        1 MOL      0.196612
     40 H20         8.4400   -0.7980    8.4180 hn        1 MOL      0.196612
     41 N4          5.7400    0.2610    0.2840 n         1 MOL     -0.678847
     42 C13         5.1190    0.7150   -0.9260 c3        1 MOL      0.287069
     43 C14         3.5440    0.5990   -0.7280 c         1 MOL      0.500788
     44 O6          3.0490    0.0450    0.2500 o         1 MOL     -0.493306
     45 C15         5.6530   -0.1900   -2.0760 c3        1 MOL     -0.234114
     46 C16         5.5820   -1.7690   -1.9020 c         1 MOL      0.721348
     47 O7          5.8590   -2.4770   -2.8820 o         1 MOL     -0.731475
     48 O8          5.2490   -2.2940   -0.8140 o         1 MOL     -0.731475
     49 H21         5.1990   -0.4090    0.8180 hn        1 MOL      0.283770
     50 H22         5.2520    1.7750   -1.1300 h1        1 MOL      0.045293
     51 H23         6.6820    0.1440   -2.1700 hc        1 MOL      0.075393
     52 H24         5.2000    0.1170   -3.0260 hc        1 MOL      0.075393
     53 N5          2.6890    1.1270   -1.6510 n         1 MOL     -0.486658
     54 C17         2.9510    1.8430   -2.8930 c3        1 MOL     -0.062874
     55 C18         2.9210    3.3880   -2.7310 c         1 MOL      0.594323
     56 O9          2.9610    3.8430   -1.6140 o         1 MOL     -0.543523
     57 H25         1.6950    1.0290   -1.5280 hn        1 MOL      0.367615
     58 H26         2.2100    1.5680   -3.6430 h1        1 MOL      0.063366
     59 H27         3.9320    1.7310   -3.3600 h1        1 MOL      0.063366
     60 N6          2.7260    4.1330   -3.7850 n         1 MOL     -0.432999
     61 C19         2.5910    5.6340   -3.8950 c3        1 MOL      0.062547
     62 C20         1.6010    6.0850   -2.8060 c         1 MOL      0.424502
     63 O10         0.4140    5.9090   -3.0400 o         1 MOL     -0.454238
     64 C21         2.1370    5.8660   -5.2930 c3        1 MOL     -0.311219
     65 C22         1.6990    7.2990   -5.7590 c         1 MOL      0.738443
     66 O11         1.4370    8.2400   -5.0160 o         1 MOL     -0.613664
     67 O12         1.6110    7.4980   -6.9880 o         1 MOL     -0.613664
     68 H28         2.7020    3.6520   -4.6790 hn        1 MOL      0.271928
     69 H29         3.5640    6.0930   -3.8040 h1        1 MOL      0.056308
     70 H30         1.3110    5.1670   -5.5020 hc        1 MOL      0.084886
     71 H31         2.9490    5.5350   -5.9500 hc        1 MOL      0.084886
     72 N7          2.0670    6.6180   -1.6460 n         1 MOL     -0.254028
     73 C23         1.2480    7.2160   -0.6540 c3        1 MOL     -0.172282
     74 C24         0.8300    6.2680    0.5480 c         1 MOL      0.528219
     75 O13         0.4440    6.7940    1.6160 o         1 MOL     -0.576177
     76 H32         3.0700    6.7600   -1.5730 hn        1 MOL      0.250098
     77 H33         0.3610    7.6230   -1.1360 h1        1 MOL      0.114306
     78 H34         1.7580    8.0230   -0.1290 h1        1 MOL      0.114306
     79 N8          1.0380    4.9430    0.4260 n         1 MOL     -0.249634
     80 C25         0.7510    3.9460    1.4590 c3        1 MOL      0.055427
     81 C26         0.2410    2.6390    0.7750 c         1 MOL      0.236582
     82 O14         0.2870    2.5210   -0.4580 o         1 MOL     -0.395372
     83 C27         2.0320    3.6430    2.3090 c3        1 MOL      0.251175
     84 C28         3.2780    3.4100    1.4950 c3        1 MOL     -0.156620
     85 O15         2.4970    4.7520    3.0850 oh        1 MOL     -0.562598
     86 H35         1.5340    4.6000   -0.3920 hn        1 MOL      0.188179
     87 H36        -0.0410    4.3410    2.0890 h1        1 MOL      0.064275
     88 H37         1.8630    2.7670    2.9360 h1        1 MOL     -0.044365
     89 H38         1.7540    4.9000    3.6770 ho        1 MOL      0.353205
     90 H39         3.0180    2.7830    0.6440 hc        1 MOL      0.049331
     91 H40         3.5730    4.3260    0.9730 hc        1 MOL      0.049331
     92 H41         4.1460    3.0540    2.0490 hc        1 MOL      0.049331
     93 N9         -0.2050    1.6730    1.5450 n         1 MOL     -0.269102
     94 C29        -0.7080    0.3690    1.0350 c3        1 MOL     -0.086814
     95 C30        -2.0800    0.6410    0.3720 c         1 MOL      0.531937
     96 O16        -2.3590    0.1440   -0.7520 o         1 MOL     -0.532395
     97 C31        -0.7450   -0.7180    2.1220 c3        1 MOL      0.373850
     98 C32         0.5740   -0.7500    2.9270 c3        1 MOL      0.129759
     99 C33        -1.1410   -2.0300    1.4200 c3        1 MOL     -0.439914
    100 C34         0.8090   -2.0170    3.8110 c3        1 MOL     -0.212980
    101 H42        -0.3370    1.7860    2.5450 hn        1 MOL      0.232769
    102 H43         0.0440    0.0730    0.3000 h1        1 MOL      0.049167
    103 H44        -1.5150   -0.4230    2.8400 hc        1 MOL     -0.089748
    104 H45         0.5160    0.1130    3.5900 hc        1 MOL     -0.039148
    105 H46         1.3420   -0.5780    2.1770 hc        1 MOL     -0.039148
    106 H47        -0.4200   -2.3610    0.6640 hc        1 MOL      0.105857
    107 H48        -1.1700   -2.7790    2.2070 hc        1 MOL      0.105857
    108 H49        -2.0990   -1.9300    0.9110 hc        1 MOL      0.105857
    109 H50        -0.1420   -2.4460    4.1180 hc        1 MOL      0.038910
    110 H51         1.2590   -2.7910    3.1860 hc        1 MOL      0.038910
    111 H52         1.4160   -1.7910    4.6860 hc        1 MOL      0.038910
    112 N10        -2.9500    1.4100    1.0410 n         1 MOL     -0.399295
    113 C35        -4.1920    1.9130    0.4610 c3        1 MOL     -0.135820
    114 C36        -5.2410    1.9930    1.6230 c         1 MOL      0.739282
    115 O17        -4.8170    2.2660    2.7550 o         1 MOL     -0.527105
    116 C37        -3.9530    3.0570   -0.3880 c3        1 MOL      0.474825
    117 C38        -5.2090    3.8190   -0.9170 c3        1 MOL     -0.295584
    118 O18        -3.1900    4.0100    0.2000 oh        1 MOL     -0.601798
    119 H53        -2.7690    1.6080    2.0130 hn        1 MOL      0.254790
    120 H54        -4.7190    1.1470   -0.1100 h1        1 MOL      0.057716
    121 H55        -3.4330    2.7500   -1.3010 h1        1 MOL      0.027256
    122 H56        -2.9930    4.6610   -0.4730 ho        1 MOL      0.380090
    123 H57        -6.0620    3.8200   -0.2380 hc        1 MOL      0.056295
    124 H58        -5.0090    4.8520   -1.1840 hc        1 MOL      0.056295
    125 H59        -5.4270    3.3090   -1.8530 hc        1 MOL      0.056295
    126 N11        -6.5550    1.7340    1.4010 n         1 MOL     -0.633558
    127 C39        -7.5570    1.6420    2.4960 c3        1 MOL     -0.072381
    128 C40        -8.4130    0.3410    2.4820 c         1 MOL      0.648576
    129 O19        -8.7430   -0.2640    3.5010 o         1 MOL     -0.578348
    130 C41        -8.6260    2.7800    2.5640 c3        1 MOL      0.424034
    131 C42        -8.0600    4.1230    2.2860 c3        1 MOL     -0.261797
    132 O20        -9.1630    2.8690    3.8910 oh        1 MOL     -0.680980
    133 H60        -6.9300    1.7420    0.4710 hn        1 MOL      0.340089
    134 H61        -7.0260    1.5550    3.4480 h1        1 MOL      0.095244
    135 H62        -9.4490    2.4560    1.9400 h1        1 MOL      0.032858
    136 H63        -8.5750    3.3120    4.4940 ho        1 MOL      0.416732
    137 H64        -8.4570    4.8320    3.0210 hc        1 MOL      0.066530
    138 H65        -6.9740    4.2030    2.2610 hc        1 MOL      0.066530
    139 H66        -8.4860    4.4070    1.3210 hc        1 MOL      0.066530
    140 N12        -8.8750   -0.1120    1.3290 n         1 MOL     -0.449615
    141 C43        -9.5030   -1.4900    1.1400 c3        1 MOL      0.113714
    142 C44        -9.3220   -2.0310   -0.2960 c         1 MOL      0.451493
    143 O21        -8.7380   -1.3280   -1.1440 o         1 MOL     -0.523911
    144 C45       -11.0060   -1.5050    1.6490 c3        1 MOL     -0.552068
    145 C46       -11.9460   -0.5740    0.8200 c3        1 MOL      0.243910
    146 C47       -13.4390   -0.6590    1.3550 c3        1 MOL     -0.028141
    147 C48       -14.3430    0.3230    0.6120 c3        1 MOL     -0.019083
    148 N13       -15.5820    0.6550    1.3070 n4        1 MOL     -0.047996
    149 H67        -8.6600    0.4250    0.5030 hn        1 MOL      0.224100
    150 H68        -8.8920   -2.1550    1.7340 h1        1 MOL      0.096939
    151 H69       -10.9460   -1.2050    2.6930 hc        1 MOL      0.179165
    152 H70       -11.4110   -2.5130    1.6070 hc        1 MOL      0.179165
    153 H71       -11.8980   -1.0010   -0.1810 hc        1 MOL     -0.021670
    154 H72       -11.6120    0.4680    0.8320 hc        1 MOL     -0.021670
    155 H73       -13.2810   -0.4330    2.4150 hc        1 MOL      0.029280
    156 H74       -13.8020   -1.6770    1.2560 hc        1 MOL      0.029280
    157 H75       -14.6310   -0.1890   -0.3040 hx        1 MOL      0.070136
    158 H76       -13.8350    1.2650    0.4270 hx        1 MOL      0.070136
    159 H77       -16.1090    1.3260    0.7560 hn        1 MOL      0.194977
    160 H78       -16.1440   -0.1730    1.4720 hn        1 MOL      0.194977
    161 H79       -15.4770    0.9790    2.2570 hn        1 MOL      0.194977
    162 N14        -9.6830   -3.2920   -0.4490 n         1 MOL     -0.339373
    163 C49        -9.4810   -4.1110   -1.7330 c3        1 MOL      0.130113
    164 C50        -8.0610   -4.0440   -2.3500 c         1 MOL      0.385014
    165 O22        -8.0570   -4.0290   -3.5630 o         1 MOL     -0.535219
    166 C51        -9.9930   -5.4870   -1.5800 c3        1 MOL      0.019075
    167 C52       -10.2090   -6.2700   -2.8850 c3        1 MOL     -0.155488
    168 C53       -10.9260   -7.6120   -2.7850 c         1 MOL      0.683718
    169 O23       -11.6030   -7.8210   -1.7600 o         1 MOL     -0.651668
    170 O24       -10.6580   -8.5470   -3.5810 o         1 MOL     -0.651668
    171 H80       -10.1380   -3.7440    0.3420 hn        1 MOL      0.210981
    172 H81       -10.1190   -3.6810   -2.5050 h1        1 MOL      0.063805
    173 H82       -10.9840   -5.3280   -1.1610 hc        1 MOL     -0.002964
    174 H83        -9.3660   -6.1010   -0.9310 hc        1 MOL     -0.002964
    175 H84        -9.1900   -6.4410   -3.2390 hc        1 MOL      0.045460
    176 H85       -10.6850   -5.6360   -3.6340 hc        1 MOL      0.045460
    177 N15        -6.9580   -4.2150   -1.6920 n         1 MOL     -0.277175
    178 C54        -6.7560   -4.8750   -0.3810 c3        1 MOL     -0.113986
    179 H86        -5.6940   -4.8810   -0.1380 h1        1 MOL      0.078547
    180 H87        -7.3020   -4.3300    0.3890 h1        1 MOL      0.078547
    181 H88        -7.1220   -5.9010   -0.4300 h1        1 MOL      0.078547
    182 H89        -6.1830   -4.1820   -2.3270 hn        1 MOL      0.275240
    183 Ca1         6.6090   -4.4620   -1.0910 Ca        1 MOL      1.764842
    184 O25         5.9540   -5.9070   -3.4330 oh        1 MOL     -0.866631
    185 H90         5.0400   -6.1390   -3.6190 ho        1 MOL      0.429072
    186 H91         6.2540   -5.4500   -4.2170 ho        1 MOL      0.429072
    187 O26         4.0040   -4.9890   -1.1950 oh        1 MOL     -0.866631
    188 H92         3.3020   -4.3560   -1.0370 ho        1 MOL      0.429072
    189 H93         3.5690   -5.8360   -1.1840 ho        1 MOL      0.429072
    190 O27         5.5700   -4.3930    1.3970 oh        1 MOL     -0.866631
    191 H94         5.1600   -3.6510    1.8420 ho        1 MOL      0.429072
    192 H95         5.3540   -5.1460    1.9500 ho        1 MOL      0.429072
@<TRIPOS>BOND
     1    1    2 1   
     2    1    4 1   
     3    1    5 1   
     4    1    6 1   
     5    2    3 2   
     6    2    7 1   
     7    7    8 1   
     8    7   15 1   
     9    8    9 1   
    10    8   11 1   
    11    8   16 1   
    12    9   10 2   
    13    9   19 1   
    14   11   12 1   
    15   11   17 1   
    16   11   18 1   
    17   12   13 1   
    18   12   14 1   
    19   19   20 1   
    20   19   28 1   
    21   20   21 1   
    22   20   23 1   
    23   20   29 1   
    24   21   22 2   
    25   21   41 1   
    26   23   24 1   
    27   23   30 1   
    28   23   31 1   
    29   24   25 1   
    30   24   32 1   
    31   24   33 1   
    32   25   26 1   
    33   25   34 1   
    34   25   35 1   
    35   26   27 1   
    36   26   36 1   
    37   26   37 1   
    38   27   38 1   
    39   27   39 1   
    40   27   40 1   
    41   41   42 1   
    42   41   49 1   
    43   42   43 1   
    44   42   45 1   
    45   42   50 1   
    46   43   44 2   
    47   43   53 1   
    48   45   46 1   
    49   45   51 1   
    50   45   52 1   
    51   46   47 1   
    52   46   48 1   
    53   53   54 1   
    54   53   57 1   
    55   54   55 1   
    56   54   58 1   
    57   54   59 1   
    58   55   56 2   
    59   55   60 1   
    60   60   61 1   
    61   60   68 1   
    62   61   62 1   
    63   61   64 1   
    64   61   69 1   
    65   62   63 2   
    66   62   72 1   
    67   64   65 1   
    68   64   70 1   
    69   64   71 1   
    70   65   66 1   
    71   65   67 1   
    72   72   73 1   
    73   72   76 1   
    74   73   74 1   
    75   73   77 1   
    76   73   78 1   
    77   74   75 2   
    78   74   79 1   
    79   79   80 1   
    80   79   86 1   
    81   80   81 1   
    82   80   83 1   
    83   80   87 1   
    84   81   82 2   
    85   81   93 1   
    86   83   84 1   
    87   83   85 1   
    88   83   88 1   
    89   84   90 1   
    90   84   91 1   
    91   84   92 1   
    92   85   89 1   
    93   93   94 1   
    94   93  101 1   
    95   94   95 1   
    96   94   97 1   
    97   94  102 1   
    98   95   96 2   
    99   95  112 1   
   100   97   98 1   
   101   97   99 1   
   102   97  103 1   
   103   98  100 1   
   104   98  104 1   
   105   98  105 1   
   106   99  106 1   
   107   99  107 1   
   108   99  108 1   
   109  100  109 1   
   110  100  110 1   
   111  100  111 1   
   112  112  113 1   
   113  112  119 1   
   114  113  114 1   
   115  113  116 1   
   116  113  120 1   
   117  114  115 2   
   118  114  126 1   
   119  116  117 1   
   120  116  118 1   
   121  116  121 1   
   122  117  123 1   
   123  117  124 1   
   124  117  125 1   
   125  118  122 1   
   126  126  127 1   
   127  126  133 1   
   128  127  128 1   
   129  127  130 1   
   130  127  134 1   
   131  128  129 2   
   132  128  140 1   
   133  130  131 1   
   134  130  132 1   
   135  130  135 1   
   136  131  137 1   
   137  131  138 1   
   138  131  139 1   
   139  132  136 1   
   140  140  141 1   
   141  140  149 1   
   142  141  142 1   
   143  141  144 1   
   144  141  150 1   
   145  142  143 2   
   146  142  162 1   
   147  144  145 1   
   148  144  151 1   
   149  144  152 1   
   150  145  146 1   
   151  145  153 1   
   152  145  154 1   
   153  146  147 1   
   154  146  155 1   
   155  146  156 1   
   156  147  148 1   
   157  147  157 1   
   158  147  158 1   
   159  148  159 1   
   160  148  160 1   
   161  148  161 1   
   162  162  163 1   
   163  162  171 1   
   164  163  164 1   
   165  163  166 1   
   166  163  172 1   
   167  164  165 2   
   168  164  177 1   
   169  166  167 1   
   170  166  173 1   
   171  166  174 1   
   172  167  168 1   
   173  167  175 1   
   174  167  176 1   
   175  168  169 1   
   176  168  170 1   
   177  177  178 1   
   178  177  182 1   
   179  178  179 1   
   180  178  180 1   
   181  178  181 1   
   182  184  185 1   
   183  184  186 1   
   184  187  188 1   
   185  187  189 1   
   186  190  191 1   
   187  190  192 1   
@<TRIPOS>SUBSTRUCTURE
     1 MOL         1 TEMP              0 ****  ****    0 ROOT
