@<TRIPOS>MOLECULE
MOL
  192   187     1     0     0
SMALL
resp


@<TRIPOS>ATOM
      1 C1         -9.0020    0.1990   -1.9210 c3        1 MOL     -0.485704
      2 C2         -7.8190   -0.1630   -0.9660 c         1 MOL      0.682794
      3 O1         -6.7150   -0.3600   -1.5100 o         1 MOL     -0.658425
      4 H1         -9.0520    1.2800   -2.0440 hc        1 MOL      0.124128
      5 H2         -8.8420   -0.2700   -2.8920 hc        1 MOL      0.124128
      6 H3         -9.9380   -0.1620   -1.4930 hc        1 MOL      0.124128
      7 N1         -8.1110   -0.3490    0.3130 n         1 MOL     -0.405664
      8 C3         -7.1410   -0.7610    1.3380 c3        1 MOL      0.027679
      9 C4         -6.6640   -2.2800    1.2620 c         1 MOL      0.697524
     10 O2         -6.6700   -3.0410    2.2650 o         1 MOL     -0.472713
     11 C5         -7.7520   -0.3690    2.7330 c3        1 MOL     -0.039666
     12 C6         -9.2190   -0.6820    3.0320 c         1 MOL      0.603621
     13 O3        -10.0110   -0.1890    2.1540 o         1 MOL     -0.631228
     14 O4         -9.5470   -1.5460    3.8360 o         1 MOL     -0.631228
     15 H4         -9.0760   -0.2920    0.6110 hn        1 MOL      0.206658
     16 H5         -6.1740   -0.2610    1.2800 h1        1 MOL      0.054708
     17 H6         -7.6520    0.7140    2.7570 hc        1 MOL      0.011867
     18 H7         -7.1160   -0.7030    3.5480 hc        1 MOL      0.011867
     19 N2         -6.2760   -2.6990    0.0230 n         1 MOL     -0.823181
     20 C7         -5.7230   -4.0430   -0.1920 c3        1 MOL      0.242290
     21 C8         -4.3000   -4.0840    0.3440 c         1 MOL      0.258284
     22 O5         -4.0130   -4.9780    1.0820 o         1 MOL     -0.485073
     23 C9         -5.7520   -4.3710   -1.7020 c3        1 MOL     -0.156846
     24 C10        -7.2180   -4.4500   -2.2230 c3        1 MOL      0.017445
     25 C11        -7.2360   -4.9410   -3.6450 c3        1 MOL      0.009786
     26 C12        -8.7170   -5.1370   -4.0250 c3        1 MOL      0.083040
     27 N3         -8.8570   -5.3850   -5.4870 n4        1 MOL     -0.303826
     28 H8         -6.3490   -1.9800   -0.6950 hn        1 MOL      0.395099
     29 H9         -6.3810   -4.7510    0.3100 h1        1 MOL      0.090283
     30 H10        -5.4050   -5.4020   -1.7980 hc        1 MOL      0.057225
     31 H11        -5.1910   -3.6510   -2.3040 hc        1 MOL      0.057225
     32 H12        -7.6860   -3.4670   -2.2260 hc        1 MOL      0.029159
     33 H13        -7.7360   -5.2290   -1.6730 hc        1 MOL      0.029159
     34 H14        -6.6610   -5.8660   -3.7490 hc        1 MOL      0.012109
     35 H15        -6.8140   -4.1520   -4.2730 hc        1 MOL      0.012109
     36 H16        -9.1520   -4.1880   -3.7090 hx        1 MOL      0.062604
     37 H17        -9.1960   -5.9950   -3.5510 hx        1 MOL      0.062604
     38 H18        -9.8080   -5.5760   -5.7660 hn        1 MOL      0.287188
     39 H19        -8.5540   -4.5340   -5.9500 hn        1 MOL      0.287188
     40 H20        -8.2950   -6.1760   -5.7810 hn        1 MOL      0.287188
     41 N4         -3.4840   -3.0170    0.2210 n         1 MOL     -0.090793
     42 C13        -3.5280   -1.8520   -0.6810 c3        1 MOL     -0.099613
     43 C14        -3.8080   -0.5980    0.1050 c         1 MOL      0.041676
     44 O6         -3.6980   -0.5750    1.3360 o         1 MOL     -0.372863
     45 C15        -2.2550   -1.7420   -1.4820 c3        1 MOL     -0.188624
     46 C16        -0.9290   -1.8890   -0.7970 c         1 MOL      0.616640
     47 O7         -0.7180   -1.2620    0.2390 o         1 MOL     -0.629318
     48 O8         -0.1650   -2.7430   -1.3160 o         1 MOL     -0.629318
     49 H21        -2.5750   -3.1550    0.6350 hn        1 MOL      0.288411
     50 H22        -4.3720   -1.9510   -1.3530 h1        1 MOL      0.162225
     51 H23        -2.1820   -0.8480   -2.0950 hc        1 MOL      0.042633
     52 H24        -2.3470   -2.5820   -2.1710 hc        1 MOL      0.042633
     53 N5         -4.1610    0.5290   -0.5870 n         1 MOL     -0.003160
     54 C17        -4.3760    1.8660    0.0180 c3        1 MOL     -0.297296
     55 C18        -3.1860    2.4860    0.7820 c         1 MOL      0.585892
     56 O9         -2.0620    2.0260    0.5620 o         1 MOL     -0.486966
     57 H25        -4.4110    0.3980   -1.5490 hn        1 MOL      0.227447
     58 H26        -5.2040    1.7760    0.7320 h1        1 MOL      0.116257
     59 H27        -4.6700    2.5170   -0.8010 h1        1 MOL      0.116257
     60 N6         -3.4970    3.5590    1.4590 n         1 MOL     -0.446617
     61 C19        -2.5640    4.5640    1.9630 c3        1 MOL      0.308947
     62 C20        -3.1250    5.9580    1.7370 c         1 MOL      0.370778
     63 O10        -4.3840    6.0720    1.6380 o         1 MOL     -0.537389
     64 C21        -2.3280    4.3380    3.4490 c3        1 MOL     -0.345543
     65 C22        -1.7420    2.9620    3.6580 c         1 MOL      0.689318
     66 O11        -2.3660    2.0870    4.2760 o         1 MOL     -0.661161
     67 O12        -0.6030    2.7270    3.1690 o         1 MOL     -0.661161
     68 H28        -4.4620    3.8480    1.4630 hn        1 MOL      0.292620
     69 H29        -1.6070    4.4650    1.4500 h1        1 MOL     -0.022299
     70 H30        -3.2270    4.4760    4.0460 hc        1 MOL      0.091644
     71 H31        -1.5550    5.0890    3.6270 hc        1 MOL      0.091644
     72 N7         -2.3740    7.0310    1.6380 n         1 MOL     -0.321735
     73 C23        -0.9430    7.0290    1.5390 c3        1 MOL     -0.132755
     74 C24        -0.1990    6.3550    0.4120 c         1 MOL      0.775963
     75 O13        -0.5880    6.4390   -0.7330 o         1 MOL     -0.571479
     76 H32        -2.8560    7.9120    1.5870 hn        1 MOL      0.308145
     77 H33        -0.6060    6.6280    2.5000 h1        1 MOL      0.070458
     78 H34        -0.5680    8.0480    1.5390 h1        1 MOL      0.070458
     79 N8          0.9160    5.8150    0.7970 n         1 MOL     -0.715530
     80 C25         1.8890    5.1910   -0.1210 c3        1 MOL     -0.015559
     81 C26         1.3560    3.9030   -0.6570 c         1 MOL      0.946249
     82 O14         1.0320    3.0960    0.1610 o         1 MOL     -0.772986
     83 C27         3.2690    5.0680    0.5370 c3        1 MOL      0.368871
     84 C28         3.6320    6.5470    0.9840 c3        1 MOL     -0.291321
     85 O15         4.1300    4.8180   -0.4760 oh        1 MOL     -0.711551
     86 H35         1.1280    5.9210    1.7800 hn        1 MOL      0.325693
     87 H36         1.9740    5.8310   -0.9940 h1        1 MOL      0.090972
     88 H37         3.4010    4.4220    1.3990 h1        1 MOL      0.017595
     89 H38         5.0290    4.8430   -0.1470 ho        1 MOL      0.441368
     90 H39         3.2400    6.8930    1.9390 hc        1 MOL      0.079465
     91 H40         4.7150    6.5870    1.1030 hc        1 MOL      0.079465
     92 H41         3.4200    7.2620    0.1890 hc        1 MOL      0.079465
     93 N9          1.1630    3.7680   -2.0230 n         1 MOL     -0.649541
     94 C29         0.7350    2.6040   -2.7780 c3        1 MOL      0.009193
     95 C30         1.2900    1.2900   -2.2130 c         1 MOL      0.537678
     96 O16         0.9280    0.7670   -1.1780 o         1 MOL     -0.493720
     97 C31        -0.8270    2.6660   -2.9340 c3        1 MOL      0.152377
     98 C32        -1.3510    4.0420   -3.4280 c3        1 MOL      0.049082
     99 C33        -1.2790    1.5650   -3.8900 c3        1 MOL     -0.315127
    100 C34        -0.8370    4.5880   -4.7960 c3        1 MOL     -0.236994
    101 H42         1.4110    4.6530   -2.4590 hn        1 MOL      0.306846
    102 H43         1.1500    2.7680   -3.7790 h1        1 MOL      0.087739
    103 H44        -1.2530    2.3670   -1.9810 hc        1 MOL     -0.022135
    104 H45        -1.1260    4.7760   -2.6520 hc        1 MOL      0.021203
    105 H46        -2.4410    4.0220   -3.4380 hc        1 MOL      0.021203
    106 H47        -2.3530    1.4120   -3.8910 hc        1 MOL      0.074230
    107 H48        -0.9780    1.7520   -4.9250 hc        1 MOL      0.074230
    108 H49        -0.8430    0.6090   -3.5900 hc        1 MOL      0.074230
    109 H50        -1.4070    5.5030   -4.9120 hc        1 MOL      0.057368
    110 H51         0.2350    4.8000   -4.7480 hc        1 MOL      0.057368
    111 H52        -0.9930    3.9570   -5.6640 hc        1 MOL      0.057368
    112 N10         2.1680    0.6630   -2.9150 n         1 MOL     -0.377045
    113 C35         2.6560   -0.7260   -2.7390 c3        1 MOL     -0.019167
    114 C36         4.1980   -0.8270   -2.8470 c         1 MOL      0.475755
    115 O17         4.7150   -1.8390   -3.2600 o         1 MOL     -0.520852
    116 C37         1.9620   -1.7030   -3.7130 c3        1 MOL      0.414881
    117 C38         2.3420   -1.3850   -5.1220 c3        1 MOL     -0.305374
    118 O18         0.5590   -1.5560   -3.6240 oh        1 MOL     -0.608023
    119 H53         2.4320    1.1010   -3.7930 hn        1 MOL      0.230291
    120 H54         2.2650   -1.1730   -1.8220 h1        1 MOL      0.042218
    121 H55         2.1820   -2.7370   -3.4460 h1        1 MOL      0.020231
    122 H56         0.3240   -1.8400   -2.7420 ho        1 MOL      0.350764
    123 H57         3.3640   -1.7060   -5.3350 hc        1 MOL      0.065422
    124 H58         1.6740   -1.8800   -5.8200 hc        1 MOL      0.065422
    125 H59         2.3010   -0.3090   -5.2800 hc        1 MOL      0.065422
    126 N11         4.9560    0.2720   -2.5430 n         1 MOL     -0.269056
    127 C39         6.4370    0.5430   -2.4190 c3        1 MOL     -0.114128
    128 C40         6.9310   -0.2810   -1.2290 c         1 MOL      0.479294
    129 O19         7.2210    0.2280   -0.1300 o         1 MOL     -0.520806
    130 C41         6.6670    2.0800   -2.2160 c3        1 MOL      0.215934
    131 C42         6.4090    2.8780   -3.4990 c3        1 MOL     -0.050820
    132 O20         5.7190    2.5690   -1.3680 oh        1 MOL     -0.573834
    133 H60         4.5250    1.1310   -2.2280 hn        1 MOL      0.242232
    134 H61         6.9260    0.1590   -3.3190 h1        1 MOL      0.103162
    135 H62         7.7180    2.3250   -2.0490 h1        1 MOL      0.052947
    136 H63         6.1440    3.3410   -0.9810 ho        1 MOL      0.388816
    137 H64         5.3710    2.9510   -3.8300 hc        1 MOL      0.009381
    138 H65         6.8880    3.8540   -3.4550 hc        1 MOL      0.009381
    139 H66         6.9700    2.3970   -4.2970 hc        1 MOL      0.009381
    140 N12         6.8140   -1.6470   -1.3290 n         1 MOL     -0.572619
    141 C43         6.6500   -2.5890   -0.2090 c3        1 MOL      0.336012
    142 C44         5.3350   -2.2090    0.5240 c         1 MOL      0.451925
    143 O21         4.6510   -1.2230    0.3140 o         1 MOL     -0.413785
    144 C45         7.9550   -2.6590    0.6710 c3        1 MOL     -0.513753
    145 C46         9.1790   -2.6800   -0.2470 c3        1 MOL      0.316936
    146 C47        10.4550   -2.7140    0.6590 c3        1 MOL      0.064357
    147 C48        11.7160   -2.2050   -0.0850 c3        1 MOL     -0.110726
    148 N13        12.3700   -3.3740   -0.7280 n4        1 MOL     -0.262794
    149 H67         6.7270   -1.9550   -2.2910 hn        1 MOL      0.294162
    150 H68         6.5370   -3.5880   -0.6270 h1        1 MOL      0.030354
    151 H69         7.9270   -3.5270    1.3360 hc        1 MOL      0.143291
    152 H70         7.9900   -1.7990    1.3360 hc        1 MOL      0.143291
    153 H71         9.2770   -1.7930   -0.8770 hc        1 MOL     -0.060803
    154 H72         9.2080   -3.5060   -0.9650 hc        1 MOL     -0.060803
    155 H73        10.5360   -3.7750    0.9080 hc        1 MOL      0.012812
    156 H74        10.2280   -2.1100    1.5310 hc        1 MOL      0.012812
    157 H75        12.3730   -1.6520    0.5870 hx        1 MOL      0.122725
    158 H76        11.3570   -1.5400   -0.8650 hx        1 MOL      0.122725
    159 H77        13.2660   -3.1240   -1.1220 hn        1 MOL      0.229069
    160 H78        12.5630   -4.0780   -0.0390 hn        1 MOL      0.229069
    161 H79        11.8600   -3.7930   -1.4840 hn        1 MOL      0.229069
    162 N14         4.8200   -3.0780    1.3580 n         1 MOL     -0.633251
    163 C49         3.7720   -2.6930    2.3330 c3        1 MOL      0.520635
    164 C50         2.4080   -2.4940    1.6320 c         1 MOL      0.065469
    165 O22         1.6600   -1.5920    2.0160 o         1 MOL     -0.435583
    166 C51         3.6300   -3.7850    3.4000 c3        1 MOL     -0.036343
    167 C52         4.7470   -3.6280    4.4170 c3        1 MOL     -0.312453
    168 C53         4.9180   -4.8400    5.3250 c         1 MOL      0.739078
    169 O23         5.4970   -4.7190    6.4310 o         1 MOL     -0.648830
    170 O24         4.6110   -5.9690    4.9620 o         1 MOL     -0.648830
    171 H80         5.2440   -3.9860    1.4450 hn        1 MOL      0.328775
    172 H81         4.0790   -1.7730    2.8160 h1        1 MOL     -0.016751
    173 H82         3.7770   -4.7030    2.8280 hc        1 MOL      0.055328
    174 H83         2.6670   -3.7230    3.9080 hc        1 MOL      0.055328
    175 H84         4.6420   -2.6940    4.9660 hc        1 MOL      0.049292
    176 H85         5.6800   -3.4670    3.8750 hc        1 MOL      0.049292
    177 N15         2.0530   -3.3350    0.6250 n         1 MOL     -0.109643
    178 C54         2.5200   -4.6570    0.2370 c3        1 MOL     -0.056314
    179 H86         3.2170   -5.0310    0.9880 h1        1 MOL      0.030262
    180 H87         1.6700   -5.3360    0.1610 h1        1 MOL      0.030262
    181 H88         3.0250   -4.5970   -0.7270 h1        1 MOL      0.030262
    182 H89         1.2880   -2.9620    0.0750 hn        1 MOL      0.264851
    183 Ca1         0.3570    0.8720    1.4660 Ca        1 MOL      1.729011
    184 O25         3.0880    0.9800    1.2200 oh        1 MOL     -0.885378
    185 H90         3.6050    0.1750    1.2800 ho        1 MOL      0.421475
    186 H91         3.7020    1.6390    0.8990 ho        1 MOL      0.421475
    187 O26         1.3180    0.5560    4.0740 oh        1 MOL     -0.885378
    188 H92         0.7960    0.8850    4.8120 ho        1 MOL      0.421475
    189 H93         2.2120    0.4940    4.4110 ho        1 MOL      0.421475
    190 O27        -1.6930   -0.1910    2.9780 oh        1 MOL     -0.885378
    191 H94        -1.9100    0.5670    3.5160 ho        1 MOL      0.421475
    192 H95        -2.4170   -0.2700    2.3610 ho        1 MOL      0.421475
@<TRIPOS>BOND
     1    1    2 1   
     2    1    4 1   
     3    1    5 1   
     4    1    6 1   
     5    2    3 2   
     6    2    7 1   
     7    7    8 1   
     8    7   15 1   
     9    8    9 1   
    10    8   11 1   
    11    8   16 1   
    12    9   10 2   
    13    9   19 1   
    14   11   12 1   
    15   11   17 1   
    16   11   18 1   
    17   12   13 1   
    18   12   14 1   
    19   19   20 1   
    20   19   28 1   
    21   20   21 1   
    22   20   23 1   
    23   20   29 1   
    24   21   22 2   
    25   21   41 1   
    26   23   24 1   
    27   23   30 1   
    28   23   31 1   
    29   24   25 1   
    30   24   32 1   
    31   24   33 1   
    32   25   26 1   
    33   25   34 1   
    34   25   35 1   
    35   26   27 1   
    36   26   36 1   
    37   26   37 1   
    38   27   38 1   
    39   27   39 1   
    40   27   40 1   
    41   41   42 1   
    42   41   49 1   
    43   42   43 1   
    44   42   45 1   
    45   42   50 1   
    46   43   44 2   
    47   43   53 1   
    48   45   46 1   
    49   45   51 1   
    50   45   52 1   
    51   46   47 1   
    52   46   48 1   
    53   53   54 1   
    54   53   57 1   
    55   54   55 1   
    56   54   58 1   
    57   54   59 1   
    58   55   56 2   
    59   55   60 1   
    60   60   61 1   
    61   60   68 1   
    62   61   62 1   
    63   61   64 1   
    64   61   69 1   
    65   62   63 2   
    66   62   72 1   
    67   64   65 1   
    68   64   70 1   
    69   64   71 1   
    70   65   66 1   
    71   65   67 1   
    72   72   73 1   
    73   72   76 1   
    74   73   74 1   
    75   73   77 1   
    76   73   78 1   
    77   74   75 2   
    78   74   79 1   
    79   79   80 1   
    80   79   86 1   
    81   80   81 1   
    82   80   83 1   
    83   80   87 1   
    84   81   82 2   
    85   81   93 1   
    86   83   84 1   
    87   83   85 1   
    88   83   88 1   
    89   84   90 1   
    90   84   91 1   
    91   84   92 1   
    92   85   89 1   
    93   93   94 1   
    94   93  101 1   
    95   94   95 1   
    96   94   97 1   
    97   94  102 1   
    98   95   96 2   
    99   95  112 1   
   100   97   98 1   
   101   97   99 1   
   102   97  103 1   
   103   98  100 1   
   104   98  104 1   
   105   98  105 1   
   106   99  106 1   
   107   99  107 1   
   108   99  108 1   
   109  100  109 1   
   110  100  110 1   
   111  100  111 1   
   112  112  113 1   
   113  112  119 1   
   114  113  114 1   
   115  113  116 1   
   116  113  120 1   
   117  114  115 2   
   118  114  126 1   
   119  116  117 1   
   120  116  118 1   
   121  116  121 1   
   122  117  123 1   
   123  117  124 1   
   124  117  125 1   
   125  118  122 1   
   126  126  127 1   
   127  126  133 1   
   128  127  128 1   
   129  127  130 1   
   130  127  134 1   
   131  128  129 2   
   132  128  140 1   
   133  130  131 1   
   134  130  132 1   
   135  130  135 1   
   136  131  137 1   
   137  131  138 1   
   138  131  139 1   
   139  132  136 1   
   140  140  141 1   
   141  140  149 1   
   142  141  142 1   
   143  141  144 1   
   144  141  150 1   
   145  142  143 2   
   146  142  162 1   
   147  144  145 1   
   148  144  151 1   
   149  144  152 1   
   150  145  146 1   
   151  145  153 1   
   152  145  154 1   
   153  146  147 1   
   154  146  155 1   
   155  146  156 1   
   156  147  148 1   
   157  147  157 1   
   158  147  158 1   
   159  148  159 1   
   160  148  160 1   
   161  148  161 1   
   162  162  163 1   
   163  162  171 1   
   164  163  164 1   
   165  163  166 1   
   166  163  172 1   
   167  164  165 2   
   168  164  177 1   
   169  166  167 1   
   170  166  173 1   
   171  166  174 1   
   172  167  168 1   
   173  167  175 1   
   174  167  176 1   
   175  168  169 1   
   176  168  170 1   
   177  177  178 1   
   178  177  182 1   
   179  178  179 1   
   180  178  180 1   
   181  178  181 1   
   182  184  185 1   
   183  184  186 1   
   184  187  188 1   
   185  187  189 1   
   186  190  191 1   
   187  190  192 1   
@<TRIPOS>SUBSTRUCTURE
     1 MOL         1 TEMP              0 ****  ****    0 ROOT
