@<TRIPOS>MOLECULE
MOL
  195   189     1     0     0
SMALL
resp


@<TRIPOS>ATOM
      1 C1         -4.1140   -4.6150    1.6430 c3        1 MOL     -0.694399
      2 C2         -3.0690   -4.3680    0.6110 c         1 MOL      1.068456
      3 O1         -2.5440   -3.2790    0.5510 o         1 MOL     -0.597990
      4 H1         -4.8240   -3.7880    1.6450 hc        1 MOL      0.121516
      5 H2         -4.6380   -5.5430    1.4160 hc        1 MOL      0.121516
      6 H3         -3.6450   -4.6920    2.6240 hc        1 MOL      0.121516
      7 N1         -2.7070   -5.4510   -0.1240 n         1 MOL     -0.700818
      8 C3         -1.7490   -5.4110   -1.2760 c3        1 MOL     -0.058758
      9 C4         -0.2800   -5.1370   -0.7820 c         1 MOL      0.640331
     10 O2          0.6580   -5.1600   -1.6440 o         1 MOL     -0.564643
     11 C5         -2.2680   -4.4100   -2.3520 c3        1 MOL     -0.440457
     12 C6         -3.7910   -4.4840   -2.6250 c         1 MOL      0.561015
     13 O3         -4.2550   -5.5290   -3.2040 o         1 MOL     -0.581977
     14 O4         -4.5090   -3.4560   -2.3860 o         1 MOL     -0.581977
     15 H4         -3.1420   -6.3540   -0.0170 hn        1 MOL      0.387317
     16 H5         -1.7070   -6.4380   -1.6450 h1        1 MOL      0.126313
     17 H6         -1.6810   -4.6510   -3.2450 hc        1 MOL      0.152816
     18 H7         -2.0120   -3.4610   -1.8790 hc        1 MOL      0.152816
     19 N2         -0.0790   -4.9830    0.5180 n         1 MOL     -0.228922
     20 C7          1.2460   -4.9200    1.1380 c3        1 MOL     -0.378951
     21 C8          2.3060   -5.9460    0.7840 c         1 MOL      0.407966
     22 O5          1.9850   -7.1120    0.5110 o         1 MOL     -0.553292
     23 C9          1.0940   -4.6720    2.6860 c3        1 MOL      0.417477
     24 C10         0.3680   -5.8040    3.3850 c3        1 MOL      0.162836
     25 C11         0.3720   -3.2370    2.9380 c3        1 MOL     -0.585737
     26 C12         0.1350   -5.6020    4.8940 c3        1 MOL     -0.242439
     27 H8         -0.8980   -5.0210    1.1050 hn        1 MOL      0.121097
     28 H9          1.5630   -3.9510    0.7430 h1        1 MOL      0.087292
     29 H10         2.1070   -4.5540    3.0580 hc        1 MOL      0.005010
     30 H11         1.0640   -6.6380    3.3420 hc        1 MOL     -0.011212
     31 H12        -0.6070   -6.0540    2.9610 hc        1 MOL     -0.011212
     32 H13        -0.0220   -3.1220    3.9570 hc        1 MOL      0.146283
     33 H14         1.1450   -2.4990    2.7240 hc        1 MOL      0.146283
     34 H15        -0.5590   -3.1130    2.3990 hc        1 MOL      0.146283
     35 H16         1.0260   -5.1210    5.2740 hc        1 MOL      0.043387
     36 H17        -0.7450   -4.9680    5.0930 hc        1 MOL      0.043387
     37 H18         0.0410   -6.5560    5.4130 hc        1 MOL      0.043387
     38 N3          3.5860   -5.7270    0.7350 n         1 MOL     -0.121523
     39 C13         4.2820   -4.4760    1.0310 c3        1 MOL     -0.040736
     40 C14         4.5840   -3.6160   -0.1920 c         1 MOL      0.555895
     41 O6          4.8200   -2.3680   -0.0420 o         1 MOL     -0.535603
     42 C15         5.5460   -4.7230    1.8350 c3        1 MOL     -0.295566
     43 C16         5.2320   -5.6620    3.0520 c         1 MOL      0.710522
     44 O7          4.9600   -5.3000    4.2200 o         1 MOL     -0.669410
     45 O8          5.1520   -6.8640    2.7990 o         1 MOL     -0.669410
     46 H19         4.1260   -6.4050    0.2200 hn        1 MOL      0.221320
     47 H20         3.6070   -3.8610    1.6330 h1        1 MOL      0.089824
     48 H21         5.9080   -3.7670    2.2180 hc        1 MOL      0.070862
     49 H22         6.2960   -5.1350    1.1600 hc        1 MOL      0.070862
     50 N4          4.4830   -4.1360   -1.4200 n         1 MOL     -0.423730
     51 C17         4.8050   -3.4610   -2.6750 c3        1 MOL     -0.017562
     52 C18         6.2070   -2.8930   -2.7010 c         1 MOL      0.484526
     53 O9          7.2250   -3.5790   -2.4860 o         1 MOL     -0.552048
     54 H23         4.4100   -5.1400   -1.4810 hn        1 MOL      0.303014
     55 H24         4.1100   -2.6450   -2.8500 h1        1 MOL      0.073173
     56 H25         4.6350   -4.0820   -3.5590 h1        1 MOL      0.073173
     57 N5          6.2720   -1.6260   -3.1360 n         1 MOL     -0.488136
     58 C19         7.5880   -0.9160   -3.1720 c3        1 MOL      0.306267
     59 C20         8.2030   -0.5100   -1.8690 c         1 MOL      0.240475
     60 O10         9.3760   -0.1440   -1.8360 o         1 MOL     -0.506893
     61 C21         7.4400    0.3350   -4.0030 c3        1 MOL     -0.521371
     62 C22         6.1920    1.2810   -3.7580 c         1 MOL      0.748017
     63 O11         5.5610    1.1650   -2.7030 o         1 MOL     -0.705527
     64 O12         5.9900    2.2900   -4.5100 o         1 MOL     -0.705527
     65 H26         5.5090   -1.0570   -3.4810 hn        1 MOL      0.311758
     66 H27         8.3170   -1.5490   -3.6900 h1        1 MOL      0.055744
     67 H28         7.2160    0.0280   -5.0220 hc        1 MOL      0.103404
     68 H29         8.2850    1.0190   -3.9310 hc        1 MOL      0.103404
     69 N6          7.4390   -0.6060   -0.7300 n         1 MOL      0.029711
     70 C23         7.6950   -0.1430    0.6330 c3        1 MOL     -0.321576
     71 C24         7.4910    1.3240    0.8450 c         1 MOL      0.614009
     72 O13         7.9650    1.9240    1.7850 o         1 MOL     -0.567156
     73 H30         6.5660   -1.1190   -0.8270 hn        1 MOL      0.137459
     74 H31         8.7260   -0.4230    0.8330 h1        1 MOL      0.118856
     75 H32         7.0500   -0.7060    1.2970 h1        1 MOL      0.118856
     76 N7          6.7800    1.9910   -0.0710 n         1 MOL     -0.186012
     77 C25         6.4470    3.4890    0.0120 c3        1 MOL     -0.094855
     78 C26         5.6210    3.8290    1.2670 c         1 MOL      0.335710
     79 O14         5.4040    4.9830    1.5260 o         1 MOL     -0.493878
     80 C27         7.7010    4.3350   -0.2620 c3        1 MOL      0.079682
     81 C28         8.2560    4.0160   -1.6440 c3        1 MOL     -0.213397
     82 C29         9.4550    4.8600   -2.1070 c         1 MOL      0.661611
     83 N8          9.6990    5.0220   -3.3910 n         1 MOL     -0.791258
     84 O15        10.1860    5.3660   -1.2630 o         1 MOL     -0.586523
     85 H33         6.4780    1.4950   -0.8990 hn        1 MOL      0.142520
     86 H34         5.7720    3.6790   -0.8300 h1        1 MOL      0.130076
     87 H35         8.5200    4.1180    0.4240 hc        1 MOL      0.021009
     88 H36         7.4920    5.3890   -0.1250 hc        1 MOL      0.021009
     89 H37         7.5240    4.2150   -2.4280 hc        1 MOL      0.090611
     90 H38         8.5640    2.9690   -1.7520 hc        1 MOL      0.090611
     91 H39         9.1560    4.3990   -3.9610 hn        1 MOL      0.351107
     92 H40        10.6030    5.3430   -3.7210 hn        1 MOL      0.351107
     93 N9          5.1820    2.8660    2.0420 n         1 MOL     -0.067168
     94 C30         4.4420    3.0090    3.2600 c3        1 MOL     -0.091326
     95 C31         2.9460    2.8950    3.0270 c         1 MOL      0.528631
     96 O16         2.1070    3.5260    3.7010 o         1 MOL     -0.559134
     97 C32         4.8800    1.8350    4.1930 c3        1 MOL      0.099523
     98 C33         4.9200    0.4200    3.6720 c3        1 MOL     -0.134127
     99 C34         6.2980    2.0180    4.7350 c3        1 MOL     -0.134127
    100 H41         5.3980    1.9440    1.6730 hn        1 MOL      0.125755
    101 H42         4.6720    3.9480    3.7840 h1        1 MOL      0.101185
    102 H43         4.2200    1.8530    5.0700 hc        1 MOL      0.001863
    103 H44         3.9690    0.1210    3.2190 hc        1 MOL      0.027439
    104 H45         5.6170    0.2980    2.8450 hc        1 MOL      0.027439
    105 H46         5.1600   -0.2500    4.5030 hc        1 MOL      0.027439
    106 H47         7.1100    1.9300    4.0110 hc        1 MOL      0.027439
    107 H48         6.3120    3.0390    5.1300 hc        1 MOL      0.027439
    108 H49         6.6040    1.4770    5.6270 hc        1 MOL      0.027439
    109 N10         2.5820    2.1400    2.0100 n         1 MOL     -0.388440
    110 C35         1.1570    1.8620    1.6430 c3        1 MOL      0.093270
    111 C36         0.6740    2.9640    0.5990 c         1 MOL      0.500643
    112 O17         1.4530    3.7950    0.1290 o         1 MOL     -0.508267
    113 C37         1.0280    0.3920    1.1050 c3        1 MOL     -0.201474
    114 C38        -0.3520   -0.1210    0.8460 c         1 MOL      0.577695
    115 N11        -0.4670   -1.3350    0.3410 n         1 MOL     -0.678853
    116 O18        -1.3200    0.5010    1.1960 o         1 MOL     -0.507557
    117 H50         3.3100    1.7500    1.4340 hn        1 MOL      0.231189
    118 H51         0.4380    2.0150    2.4520 h1        1 MOL      0.074116
    119 H52         1.4680   -0.2320    1.8710 hc        1 MOL      0.066185
    120 H53         1.6450    0.1330    0.2470 hc        1 MOL      0.066185
    121 H54         0.2620   -1.7860   -0.1960 hn        1 MOL      0.341282
    122 H55        -1.3410   -1.8330    0.4210 hn        1 MOL      0.341282
    123 N12        -0.6250    2.9840    0.3640 n         1 MOL     -0.327296
    124 C39        -1.3140    3.9650   -0.5060 c3        1 MOL      0.155596
    125 C40        -2.7220    4.2720    0.0550 c         1 MOL      0.490419
    126 O19        -3.0750    3.8690    1.1410 o         1 MOL     -0.553104
    127 C41        -1.3370    3.4710   -1.9710 c3        1 MOL     -0.195083
    128 C42        -2.0970    2.1880   -2.3680 ca        1 MOL      0.030152
    129 C43        -1.5700    0.8180   -2.2710 ca        1 MOL     -0.097518
    130 C44        -3.3600    2.3870   -3.0380 ca        1 MOL     -0.097518
    131 C45        -2.3510   -0.2720   -2.7940 ca        1 MOL     -0.367223
    132 C46        -4.0550    1.3080   -3.5590 ca        1 MOL     -0.367223
    133 C47        -3.6400   -0.0200   -3.3700 ca        1 MOL      0.430526
    134 O20        -4.4650   -1.0630   -3.6140 oh        1 MOL     -0.594989
    135 H56        -1.1310    2.2740    0.8760 hn        1 MOL      0.195544
    136 H57        -0.7050    4.8700   -0.5270 h1        1 MOL      0.040488
    137 H58        -0.2770    3.2650   -2.0860 hc        1 MOL      0.057699
    138 H59        -1.7200    4.2620   -2.6140 hc        1 MOL      0.057699
    139 H60        -0.5790    0.6020   -1.8810 ha        1 MOL      0.125490
    140 H61        -3.7530    3.3410   -3.3640 ha        1 MOL      0.125490
    141 H62        -1.9740   -1.2640   -2.5950 ha        1 MOL      0.164305
    142 H63        -4.9820    1.4620   -4.0910 ha        1 MOL      0.164305
    143 H64        -4.2040   -1.9350   -3.3150 ho        1 MOL      0.470829
    144 N13        -3.5510    5.0960   -0.6240 n         1 MOL     -0.410430
    145 C48        -4.9050    5.4350   -0.2240 c3        1 MOL      0.045879
    146 C49        -5.9960    4.8370   -1.0880 c         1 MOL      0.434684
    147 O21        -6.3700    5.3750   -2.1680 o         1 MOL     -0.572467
    148 C50        -4.9920    6.9490   -0.1380 c3        1 MOL      0.081911
    149 C51        -3.8860    7.5660    0.7890 c3        1 MOL     -0.191383
    150 C52        -4.3410    8.9930    1.2270 c         1 MOL      0.679022
    151 O22        -3.8850   10.0180    0.6380 o         1 MOL     -0.635985
    152 O23        -5.1690    9.1050    2.1660 o         1 MOL     -0.635985
    153 H65        -3.2200    5.5730   -1.4510 hn        1 MOL      0.291131
    154 H66        -5.1360    5.1020    0.7890 h1        1 MOL      0.168295
    155 H67        -5.9570    7.2520    0.2620 hc        1 MOL     -0.002913
    156 H68        -4.8670    7.3870   -1.1340 hc        1 MOL     -0.002913
    157 H69        -2.9900    7.6850    0.1670 hc        1 MOL      0.026531
    158 H70        -3.6960    6.9720    1.6830 hc        1 MOL      0.026531
    159 N14        -6.6500    3.7310   -0.7010 n         1 MOL     -0.357071
    160 C53        -6.1820    2.7450    0.2680 c3        1 MOL     -0.090697
    161 C54        -6.5710    3.0930    1.7440 c         1 MOL      0.316392
    162 O24        -7.3260    4.0060    1.9700 o         1 MOL     -0.460139
    163 C55        -6.7820    1.3810   -0.1480 c3        1 MOL     -0.187746
    164 C56        -8.3490    1.2490    0.1130 c3        1 MOL     -0.315075
    165 C57        -9.0510    0.2470   -0.7970 c         1 MOL      0.679456
    166 O25       -10.2330    0.4400   -1.2240 o         1 MOL     -0.656940
    167 O26        -8.4290   -0.8000   -1.1430 o         1 MOL     -0.656940
    168 H71        -7.2240    3.4020   -1.4630 hn        1 MOL      0.323204
    169 H72        -5.1030    2.5890    0.2630 h1        1 MOL      0.093919
    170 H73        -6.3310    0.5350    0.3820 hc        1 MOL      0.127277
    171 H74        -6.4660    1.1520   -1.1620 hc        1 MOL      0.127277
    172 H75        -8.8580    2.1870   -0.0980 hc        1 MOL      0.104868
    173 H76        -8.5380    1.0230    1.1620 hc        1 MOL      0.104868
    174 N15        -5.9630    2.3940    2.7070 n         1 MOL     -0.129724
    175 C58        -6.2390    2.4360    4.1730 c3        1 MOL     -0.159261
    176 H77        -7.3110    2.3350    4.3430 h1        1 MOL      0.078719
    177 H78        -5.7160    1.6180    4.6650 h1        1 MOL      0.078719
    178 H79        -5.8960    3.3870    4.5810 h1        1 MOL      0.078719
    179 H80        -5.3220    1.6290    2.5300 hn        1 MOL      0.225524
    180 Ca1        -8.1830   -3.1130   -0.2640 Ca        1 MOL      1.595682
    181 O27        -5.6240   -2.2760   -0.1750 oh        1 MOL     -0.858007
    182 H81        -5.1510   -1.5050    0.1600 ho        1 MOL      0.381554
    183 H82        -5.0690   -2.6170   -0.8710 ho        1 MOL      0.381554
    184 O28       -10.7580   -2.5160    0.2810 oh        1 MOL     -0.858007
    185 H83       -11.3790   -3.0510    0.7720 ho        1 MOL      0.381554
    186 H84       -11.2970   -1.8510   -0.1550 ho        1 MOL      0.381554
    187 O29        -7.1410   -3.1840   -2.5900 oh        1 MOL     -0.858007
    188 H85        -6.1960   -3.2050   -2.6730 ho        1 MOL      0.381554
    189 H86        -7.4640   -3.5050   -3.4390 ho        1 MOL      0.381554
    190 O30        -8.7870   -1.8910    2.2080 oh        1 MOL     -0.858007
    191 H87        -9.3250   -2.5780    2.5970 ho        1 MOL      0.381554
    192 H88        -9.2250   -1.0690    2.4320 ho        1 MOL      0.381554
    193 O31        -9.3980   -5.0600   -1.5010 oh        1 MOL     -0.858007
    194 H89       -10.2780   -5.3640   -1.2680 ho        1 MOL      0.381554
    195 H90        -8.9700   -5.8240   -1.8980 ho        1 MOL      0.381554
@<TRIPOS>BOND
     1    1    2 1   
     2    1    4 1   
     3    1    5 1   
     4    1    6 1   
     5    2    3 2   
     6    2    7 1   
     7    7    8 1   
     8    7   15 1   
     9    8    9 1   
    10    8   11 1   
    11    8   16 1   
    12    9   10 2   
    13    9   19 1   
    14   11   12 1   
    15   11   17 1   
    16   11   18 1   
    17   12   13 1   
    18   12   14 1   
    19   19   20 1   
    20   19   27 1   
    21   20   21 1   
    22   20   23 1   
    23   20   28 1   
    24   21   22 2   
    25   21   38 1   
    26   23   24 1   
    27   23   25 1   
    28   23   29 1   
    29   24   26 1   
    30   24   30 1   
    31   24   31 1   
    32   25   32 1   
    33   25   33 1   
    34   25   34 1   
    35   26   35 1   
    36   26   36 1   
    37   26   37 1   
    38   38   39 1   
    39   38   46 1   
    40   39   40 1   
    41   39   42 1   
    42   39   47 1   
    43   40   41 2   
    44   40   50 1   
    45   42   43 1   
    46   42   48 1   
    47   42   49 1   
    48   43   44 1   
    49   43   45 1   
    50   50   51 1   
    51   50   54 1   
    52   51   52 1   
    53   51   55 1   
    54   51   56 1   
    55   52   53 2   
    56   52   57 1   
    57   57   58 1   
    58   57   65 1   
    59   58   59 1   
    60   58   61 1   
    61   58   66 1   
    62   59   60 2   
    63   59   69 1   
    64   61   62 1   
    65   61   67 1   
    66   61   68 1   
    67   62   63 1   
    68   62   64 1   
    69   69   70 1   
    70   69   73 1   
    71   70   71 1   
    72   70   74 1   
    73   70   75 1   
    74   71   72 2   
    75   71   76 1   
    76   76   77 1   
    77   76   85 1   
    78   77   78 1   
    79   77   80 1   
    80   77   86 1   
    81   78   79 2   
    82   78   93 1   
    83   80   81 1   
    84   80   87 1   
    85   80   88 1   
    86   81   82 1   
    87   81   89 1   
    88   81   90 1   
    89   82   83 1   
    90   82   84 2   
    91   83   91 1   
    92   83   92 1   
    93   93   94 1   
    94   93  100 1   
    95   94   95 1   
    96   94   97 1   
    97   94  101 1   
    98   95   96 2   
    99   95  109 1   
   100   97   98 1   
   101   97   99 1   
   102   97  102 1   
   103   98  103 1   
   104   98  104 1   
   105   98  105 1   
   106   99  106 1   
   107   99  107 1   
   108   99  108 1   
   109  109  110 1   
   110  109  117 1   
   111  110  111 1   
   112  110  113 1   
   113  110  118 1   
   114  111  112 2   
   115  111  123 1   
   116  113  114 1   
   117  113  119 1   
   118  113  120 1   
   119  114  115 1   
   120  114  116 2   
   121  115  121 1   
   122  115  122 1   
   123  123  124 1   
   124  123  135 1   
   125  124  125 1   
   126  124  127 1   
   127  124  136 1   
   128  125  126 2   
   129  125  144 1   
   130  127  128 1   
   131  127  137 1   
   132  127  138 1   
   133  128  129 ar  
   134  128  130 ar  
   135  129  131 ar  
   136  129  139 1   
   137  130  132 ar  
   138  130  140 1   
   139  131  133 ar  
   140  131  141 1   
   141  132  133 ar  
   142  132  142 1   
   143  133  134 1   
   144  134  143 1   
   145  144  145 1   
   146  144  153 1   
   147  145  146 1   
   148  145  148 1   
   149  145  154 1   
   150  146  147 2   
   151  146  159 1   
   152  148  149 1   
   153  148  155 1   
   154  148  156 1   
   155  149  150 1   
   156  149  157 1   
   157  149  158 1   
   158  150  151 1   
   159  150  152 1   
   160  159  160 1   
   161  159  168 1   
   162  160  161 1   
   163  160  163 1   
   164  160  169 1   
   165  161  162 2   
   166  161  174 1   
   167  163  164 1   
   168  163  170 1   
   169  163  171 1   
   170  164  165 1   
   171  164  172 1   
   172  164  173 1   
   173  165  166 1   
   174  165  167 1   
   175  174  175 1   
   176  174  179 1   
   177  175  176 1   
   178  175  177 1   
   179  175  178 1   
   180  181  182 1   
   181  181  183 1   
   182  184  185 1   
   183  184  186 1   
   184  187  188 1   
   185  187  189 1   
   186  190  191 1   
   187  190  192 1   
   188  193  194 1   
   189  193  195 1   
@<TRIPOS>SUBSTRUCTURE
     1 MOL         1 TEMP              0 ****  ****    0 ROOT
