@<TRIPOS>MOLECULE
MOL
  189   185     1     0     0
SMALL
resp


@<TRIPOS>ATOM
      1 C1          4.5550    3.6980   -3.4010 c3        1 MOL     -0.473715
      2 C2          5.3840    3.1210   -2.2590 c         1 MOL      0.846516
      3 O1          5.0110    3.1350   -1.0900 o         1 MOL     -0.603026
      4 H1          4.7420    3.1260   -4.3100 hc        1 MOL      0.110241
      5 H2          3.4960    3.6410   -3.1480 hc        1 MOL      0.110241
      6 H3          4.8350    4.7390   -3.5640 hc        1 MOL      0.110241
      7 N1          6.5730    2.6050   -2.6120 n         1 MOL     -0.673679
      8 C3          7.2500    1.5470   -1.8520 c3        1 MOL      0.368400
      9 C4          6.2450    0.3930   -1.6030 c         1 MOL      0.143975
     10 O2          5.7580    0.0960   -0.5660 o         1 MOL     -0.298248
     11 C5          8.1140    1.9210   -0.6710 c3        1 MOL     -0.300384
     12 C6          7.7140    3.1960    0.0550 c         1 MOL      0.801749
     13 O3          7.0450    3.0170    1.0990 o         1 MOL     -0.744923
     14 O4          8.0350    4.3050   -0.3470 o         1 MOL     -0.744923
     15 H4          6.8250    2.6360   -3.5900 hn        1 MOL      0.306603
     16 H5          7.8780    1.1410   -2.6440 h1        1 MOL      0.004347
     17 H6          9.1520    2.0600   -0.9780 hc        1 MOL      0.052247
     18 H7          8.0800    1.1400    0.0870 hc        1 MOL      0.052247
     19 N2          5.7700   -0.1890   -2.7290 n         1 MOL     -0.377988
     20 C7          4.9230   -1.3680   -2.8250 c3        1 MOL      0.076106
     21 C8          5.5400   -2.6810   -2.2740 c         1 MOL      0.412189
     22 O5          5.4790   -3.6760   -2.9360 o         1 MOL     -0.520279
     23 C9          3.4580   -1.2430   -2.3860 c3        1 MOL      0.152498
     24 C10         2.6020   -2.5280   -2.6830 c3        1 MOL     -0.008684
     25 C11         2.7680    0.0290   -2.8310 c3        1 MOL     -0.257331
     26 C12         2.5420   -2.8560   -4.1360 c3        1 MOL      0.057305
     27 H8          6.1810    0.1480   -3.5860 hn        1 MOL      0.250686
     28 H9          4.9440   -1.5920   -3.8960 h1        1 MOL      0.024087
     29 H10         3.4690   -1.2690   -1.2970 hc        1 MOL     -0.081005
     30 H11         1.5840   -2.3860   -2.3390 hc        1 MOL      0.017698
     31 H12         3.0230   -3.2590   -1.9970 hc        1 MOL      0.017698
     32 H13         2.5450    0.0750   -3.9040 hc        1 MOL      0.049041
     33 H14         1.8330    0.2030   -2.3030 hc        1 MOL      0.049041
     34 H15         3.4190    0.8680   -2.6090 hc        1 MOL      0.049041
     35 H16         2.5550   -2.0780   -4.8990 hc        1 MOL     -0.031305
     36 H17         3.4700   -3.3970   -4.3440 hc        1 MOL     -0.031305
     37 H18         1.7850   -3.5820   -4.4280 hc        1 MOL     -0.031305
     38 N3          6.0400   -2.6910   -1.0360 n         1 MOL     -0.251807
     39 C13         6.5810   -3.8910   -0.4250 c3        1 MOL     -0.050183
     40 C14         5.5890   -4.9710   -0.1500 c         1 MOL      0.703529
     41 O6          5.9520   -6.0540   -0.4960 o         1 MOL     -0.613964
     42 C15         7.4490   -3.6440    0.8140 c3        1 MOL     -0.342366
     43 C16         8.2740   -2.3130    0.6450 c         1 MOL      0.799943
     44 O7          9.0570   -2.1910   -0.3240 o         1 MOL     -0.725117
     45 O8          8.1950   -1.4680    1.5460 o         1 MOL     -0.725117
     46 H19         6.1250   -1.7920   -0.5880 hn        1 MOL      0.295702
     47 H20         7.1510   -4.3990   -1.1930 h1        1 MOL      0.080962
     48 H21         8.2280   -4.3860    0.9840 hc        1 MOL      0.092451
     49 H22         6.8230   -3.6610    1.7090 hc        1 MOL      0.092451
     50 N4          4.3940   -4.7850    0.4040 n         1 MOL     -0.670824
     51 C17         3.9390   -3.5470    1.0540 c3        1 MOL      0.336018
     52 C18         4.1190   -3.4710    2.5840 c         1 MOL      0.385646
     53 O9          4.9400   -4.1560    3.1770 o         1 MOL     -0.559701
     54 H23         3.8590   -5.6410    0.4830 hn        1 MOL      0.311681
     55 H24         2.8560   -3.4700    1.0430 h1        1 MOL      0.050105
     56 H25         4.4230   -2.6850    0.6050 h1        1 MOL      0.050105
     57 N5          3.4990   -2.5270    3.3490 n         1 MOL     -0.345022
     58 C19         2.2620   -1.6670    3.0110 c3        1 MOL      0.013384
     59 C20         2.3380   -0.9520    1.6340 c         1 MOL      0.109797
     60 O10         3.3770   -0.5360    1.1440 o         1 MOL     -0.604224
     61 C21         2.0020   -0.5960    4.0970 c3        1 MOL     -0.305098
     62 C22         3.0440    0.4870    4.1710 c         1 MOL      0.886060
     63 O11         3.9060    0.3170    5.0720 o         1 MOL     -0.715935
     64 O12         2.8420    1.4940    3.4110 o         1 MOL     -0.715935
     65 H26         3.6530   -2.6440    4.3520 hn        1 MOL      0.298875
     66 H27         1.4510   -2.3810    2.9430 h1        1 MOL      0.059301
     67 H28         2.1580   -1.1030    5.0520 hc        1 MOL      0.080931
     68 H29         1.0520   -0.0630    4.0640 hc        1 MOL      0.080931
     69 N6          1.2500   -0.7960    0.9580 n         1 MOL      0.000165
     70 C23        -0.0520   -1.3410    1.1480 c3        1 MOL     -0.026363
     71 C24        -0.3930   -2.7230    0.5300 c         1 MOL      0.556876
     72 O13         0.5040   -3.4360    0.0000 o         1 MOL     -0.514611
     73 H30         1.3710   -0.1080    0.2360 hn        1 MOL      0.180343
     74 H31        -0.8150   -0.5870    0.9810 h1        1 MOL      0.067145
     75 H32        -0.2270   -1.4540    2.2220 h1        1 MOL      0.067145
     76 N7         -1.6720   -3.1580    0.6580 n         1 MOL     -0.555388
     77 C25        -2.1260   -4.3700    0.0730 c3        1 MOL      0.178379
     78 C26        -2.6430   -4.1160   -1.3220 c         1 MOL      0.317508
     79 O14        -2.7400   -5.0400   -2.1020 o         1 MOL     -0.507217
     80 C27        -3.2500   -4.8990    0.9800 c3        1 MOL     -0.114170
     81 C28        -4.5540   -4.0530    1.0460 c3        1 MOL      0.021710
     82 C29        -5.5880   -4.7110    1.8840 c         1 MOL      0.471909
     83 N8         -6.6610   -4.0230    1.9230 n         1 MOL     -0.546894
     84 O15        -5.4600   -5.6490    2.6300 o         1 MOL     -0.542332
     85 H33        -2.3330   -2.4610    0.9620 hn        1 MOL      0.274018
     86 H34        -1.2850   -5.0490   -0.0370 h1        1 MOL      0.095424
     87 H35        -2.7830   -5.1410    1.9340 hc        1 MOL      0.044225
     88 H36        -3.5370   -5.8850    0.6270 hc        1 MOL      0.044225
     89 H37        -4.8800   -3.9030    0.0160 hc        1 MOL      0.041506
     90 H38        -4.3160   -3.0800    1.4800 hc        1 MOL      0.041506
     91 H39        -6.8760   -3.4130    1.1430 hn        1 MOL      0.282143
     92 H40        -7.3990   -4.4760    2.4470 hn        1 MOL      0.282143
     93 N9         -3.0740   -2.9020   -1.7540 n         1 MOL     -0.066116
     94 C30        -3.4490   -2.4780   -3.1100 c3        1 MOL     -0.334333
     95 C31        -4.7380   -1.6240   -3.2760 c         1 MOL      0.620108
     96 O16        -5.0640   -1.3640   -4.4340 o         1 MOL     -0.524634
     97 C32        -2.2290   -1.9050   -3.9220 c3        1 MOL      0.144191
     98 C33        -1.0450   -2.9360   -3.9710 c3        1 MOL     -0.213924
     99 C34        -1.6140   -0.6100   -3.4110 c3        1 MOL     -0.213924
    100 H41        -2.9800   -2.1010   -1.1440 hn        1 MOL      0.161425
    101 H42        -3.6700   -3.3470   -3.7200 h1        1 MOL      0.156638
    102 H43        -2.6030   -1.6230   -4.9050 hc        1 MOL      0.024849
    103 H44        -1.3850   -3.9460   -4.1930 hc        1 MOL      0.060573
    104 H45        -0.2190   -2.6840   -4.6380 hc        1 MOL      0.060573
    105 H46        -0.5980   -3.0770   -2.9860 hc        1 MOL      0.060573
    106 H47        -1.0360   -0.1430   -4.2050 hc        1 MOL      0.060573
    107 H48        -2.4820   -0.0360   -3.0860 hc        1 MOL      0.060573
    108 H49        -0.9810   -0.7760   -2.5290 hc        1 MOL      0.060573
    109 N10        -5.5380   -1.3230   -2.2000 n         1 MOL     -0.384400
    110 C35        -6.8430   -0.5990   -2.3140 c3        1 MOL      0.018357
    111 C36        -6.9970    0.6600   -1.3500 c         1 MOL      0.721901
    112 O17        -7.9590    1.3690   -1.5110 o         1 MOL     -0.584875
    113 C37        -8.0190   -1.5420   -2.4830 c3        1 MOL     -0.309407
    114 C38        -8.3100   -2.2180   -1.1320 c         1 MOL      0.668145
    115 N11        -9.5150   -2.7900   -1.1370 n         1 MOL     -0.853361
    116 O18        -7.5140   -2.2690   -0.1780 o         1 MOL     -0.532883
    117 H50        -5.4070   -1.7030   -1.2750 hn        1 MOL      0.174922
    118 H51        -6.6850   -0.0980   -3.2720 h1        1 MOL      0.072372
    119 H52        -7.7670   -2.2480   -3.2680 hc        1 MOL      0.119968
    120 H53        -8.9540   -1.0150   -2.6570 hc        1 MOL      0.119968
    121 H54       -10.1460   -2.7100   -1.9190 hn        1 MOL      0.398599
    122 H55        -9.7480   -3.2170   -0.2540 hn        1 MOL      0.398599
    123 N12        -5.9040    1.0450   -0.6490 n         1 MOL     -0.698569
    124 C39        -5.9720    2.1200    0.3260 c3        1 MOL      0.467289
    125 C40        -4.5070    2.8020    0.3940 c         1 MOL      0.244567
    126 O19        -3.5700    2.1960   -0.1120 o         1 MOL     -0.403589
    127 C41        -6.2710    1.5740    1.6710 c3        1 MOL      0.006847
    128 C42        -7.6250    0.9530    1.7430 ca        1 MOL     -0.139228
    129 C43        -7.7090   -0.3910    2.1680 ca        1 MOL      0.034150
    130 C44        -8.7560    1.6590    1.3490 ca        1 MOL      0.034150
    131 C45        -8.9210   -1.0240    2.2200 ca        1 MOL     -0.383583
    132 C46        -9.9970    1.0030    1.4860 ca        1 MOL     -0.383583
    133 C47       -10.0920   -0.3700    1.8350 ca        1 MOL      0.442075
    134 O20       -11.3200   -1.0010    1.8940 oh        1 MOL     -0.550520
    135 H56        -5.1110    0.4350   -0.7260 hn        1 MOL      0.309864
    136 H57        -6.7050    2.9020    0.1060 h1        1 MOL     -0.029545
    137 H58        -6.2830    2.4190    2.3620 hc        1 MOL      0.020090
    138 H59        -5.4560    0.9110    1.9660 hc        1 MOL      0.020090
    139 H60        -6.8000   -0.9010    2.4390 ha        1 MOL      0.084778
    140 H61        -8.7350    2.7220    1.1550 ha        1 MOL      0.084778
    141 H62        -9.0200   -2.0560    2.5220 ha        1 MOL      0.140932
    142 H63       -10.8910    1.5020    1.1350 ha        1 MOL      0.140932
    143 H64       -12.0820   -0.4110    1.8120 ho        1 MOL      0.370364
    144 N13        -4.3570    3.9860    1.0430 n         1 MOL     -0.556727
    145 C48        -3.1300    4.6510    1.4880 c3        1 MOL      0.296043
    146 C49        -2.2900    5.1890    0.3140 c         1 MOL      0.268894
    147 O21        -1.8140    6.3190    0.3970 o         1 MOL     -0.511616
    148 C50        -2.4330    3.6680    2.4500 c3        1 MOL     -0.100711
    149 C51        -2.9890    3.5490    3.8290 c3        1 MOL     -0.077515
    150 C52        -2.2490    2.5070    4.6440 c         1 MOL      0.715704
    151 O22        -2.6280    1.3160    4.6100 o         1 MOL     -0.726952
    152 O23        -1.2430    2.8450    5.2720 o         1 MOL     -0.726952
    153 H65        -5.1900    4.3470    1.4690 hn        1 MOL      0.313808
    154 H66        -3.4940    5.5600    1.9600 h1        1 MOL      0.016285
    155 H67        -1.3750    3.9360    2.4810 hc        1 MOL      0.104583
    156 H68        -2.5130    2.6650    2.0400 hc        1 MOL      0.104583
    157 H69        -4.0350    3.2470    3.7480 hc        1 MOL     -0.049798
    158 H70        -2.9620    4.4830    4.3990 hc        1 MOL     -0.049798
    159 N14        -2.0520    4.3590   -0.7050 n         1 MOL     -0.131601
    160 C53        -0.9980    4.5660   -1.6830 c3        1 MOL     -0.163068
    161 C54        -1.4950    5.2590   -2.9620 c         1 MOL      0.486366
    162 O24        -0.7090    5.5130   -3.8840 o         1 MOL     -0.528383
    163 C55        -0.3350    3.1920   -2.0370 c3        1 MOL     -0.170035
    164 C56         0.0670    2.4370   -0.8020 c3        1 MOL      0.460856
    165 C57         1.3180    3.0150   -0.0890 c         1 MOL      0.433466
    166 O25         2.2610    2.2560    0.2920 o         1 MOL     -0.549030
    167 O26         1.3150    4.1950    0.2180 o         1 MOL     -0.549030
    168 H71        -2.5740    3.4920   -0.7980 hn        1 MOL      0.191411
    169 H72        -0.2060    5.1850   -1.2540 h1        1 MOL      0.157599
    170 H73         0.5700    3.3490   -2.6290 hc        1 MOL      0.042269
    171 H74        -1.0670    2.6030   -2.5840 hc        1 MOL      0.042269
    172 H75         0.2570    1.4000   -1.0620 hc        1 MOL     -0.190858
    173 H76        -0.7980    2.4060   -0.1340 hc        1 MOL     -0.190858
    174 N15        -2.8060    5.6450   -3.0510 n         1 MOL     -0.239773
    175 C58        -3.3610    6.4130   -4.1760 c3        1 MOL     -0.294944
    176 H77        -3.2680    5.8310   -5.0930 h1        1 MOL      0.111120
    177 H78        -4.4130    6.6260   -3.9870 h1        1 MOL      0.111120
    178 H79        -2.8130    7.3490   -4.2830 h1        1 MOL      0.111120
    179 H80        -3.4180    5.4000   -2.2850 hn        1 MOL      0.211605
    180 Ca1         4.5470    1.9100    1.4190 Ca        1 MOL      1.737821
    181 O27         5.2860    2.4520    3.9440 oh        1 MOL     -0.844999
    182 H81         6.0900    2.5900    4.4570 ho        1 MOL      0.386957
    183 H82         4.6380    2.1780    4.5880 ho        1 MOL      0.386957
    184 O28         6.0790   -0.0670    2.3790 oh        1 MOL     -0.844999
    185 H83         6.8750   -0.4260    1.9960 ho        1 MOL      0.386957
    186 H84         5.9880   -0.5320    3.2200 ho        1 MOL      0.386957
    187 O29         3.9770    4.5650    1.5020 oh        1 MOL     -0.844999
    188 H85         4.5490    5.3060    1.2720 ho        1 MOL      0.386957
    189 H86         3.2160    4.6760    0.9380 ho        1 MOL      0.386957
@<TRIPOS>BOND
     1    1    2 1   
     2    1    4 1   
     3    1    5 1   
     4    1    6 1   
     5    2    3 2   
     6    2    7 1   
     7    7    8 1   
     8    7   15 1   
     9    8    9 1   
    10    8   11 1   
    11    8   16 1   
    12    9   10 2   
    13    9   19 1   
    14   11   12 1   
    15   11   17 1   
    16   11   18 1   
    17   12   13 1   
    18   12   14 1   
    19   19   20 1   
    20   19   27 1   
    21   20   21 1   
    22   20   23 1   
    23   20   28 1   
    24   21   22 2   
    25   21   38 1   
    26   23   24 1   
    27   23   25 1   
    28   23   29 1   
    29   24   26 1   
    30   24   30 1   
    31   24   31 1   
    32   25   32 1   
    33   25   33 1   
    34   25   34 1   
    35   26   35 1   
    36   26   36 1   
    37   26   37 1   
    38   38   39 1   
    39   38   46 1   
    40   39   40 1   
    41   39   42 1   
    42   39   47 1   
    43   40   41 2   
    44   40   50 1   
    45   42   43 1   
    46   42   48 1   
    47   42   49 1   
    48   43   44 1   
    49   43   45 1   
    50   50   51 1   
    51   50   54 1   
    52   51   52 1   
    53   51   55 1   
    54   51   56 1   
    55   52   53 2   
    56   52   57 1   
    57   57   58 1   
    58   57   65 1   
    59   58   59 1   
    60   58   61 1   
    61   58   66 1   
    62   59   60 2   
    63   59   69 1   
    64   61   62 1   
    65   61   67 1   
    66   61   68 1   
    67   62   63 1   
    68   62   64 1   
    69   69   70 1   
    70   69   73 1   
    71   70   71 1   
    72   70   74 1   
    73   70   75 1   
    74   71   72 2   
    75   71   76 1   
    76   76   77 1   
    77   76   85 1   
    78   77   78 1   
    79   77   80 1   
    80   77   86 1   
    81   78   79 2   
    82   78   93 1   
    83   80   81 1   
    84   80   87 1   
    85   80   88 1   
    86   81   82 1   
    87   81   89 1   
    88   81   90 1   
    89   82   83 1   
    90   82   84 2   
    91   83   91 1   
    92   83   92 1   
    93   93   94 1   
    94   93  100 1   
    95   94   95 1   
    96   94   97 1   
    97   94  101 1   
    98   95   96 2   
    99   95  109 1   
   100   97   98 1   
   101   97   99 1   
   102   97  102 1   
   103   98  103 1   
   104   98  104 1   
   105   98  105 1   
   106   99  106 1   
   107   99  107 1   
   108   99  108 1   
   109  109  110 1   
   110  109  117 1   
   111  110  111 1   
   112  110  113 1   
   113  110  118 1   
   114  111  112 2   
   115  111  123 1   
   116  113  114 1   
   117  113  119 1   
   118  113  120 1   
   119  114  115 1   
   120  114  116 2   
   121  115  121 1   
   122  115  122 1   
   123  123  124 1   
   124  123  135 1   
   125  124  125 1   
   126  124  127 1   
   127  124  136 1   
   128  125  126 2   
   129  125  144 1   
   130  127  128 1   
   131  127  137 1   
   132  127  138 1   
   133  128  129 ar  
   134  128  130 ar  
   135  129  131 ar  
   136  129  139 1   
   137  130  132 ar  
   138  130  140 1   
   139  131  133 ar  
   140  131  141 1   
   141  132  133 ar  
   142  132  142 1   
   143  133  134 1   
   144  134  143 1   
   145  144  145 1   
   146  144  153 1   
   147  145  146 1   
   148  145  148 1   
   149  145  154 1   
   150  146  147 2   
   151  146  159 1   
   152  148  149 1   
   153  148  155 1   
   154  148  156 1   
   155  149  150 1   
   156  149  157 1   
   157  149  158 1   
   158  150  151 1   
   159  150  152 1   
   160  159  160 1   
   161  159  168 1   
   162  160  161 1   
   163  160  163 1   
   164  160  169 1   
   165  161  162 2   
   166  161  174 1   
   167  163  164 1   
   168  163  170 1   
   169  163  171 1   
   170  164  165 1   
   171  164  172 1   
   172  164  173 1   
   173  165  166 1   
   174  165  167 1   
   175  174  175 1   
   176  174  179 1   
   177  175  176 1   
   178  175  177 1   
   179  175  178 1   
   180  181  182 1   
   181  181  183 1   
   182  184  185 1   
   183  184  186 1   
   184  187  188 1   
   185  187  189 1   
@<TRIPOS>SUBSTRUCTURE
     1 MOL         1 TEMP              0 ****  ****    0 ROOT
