@<TRIPOS>MOLECULE
MOL
  192   187     1     0     0
SMALL
resp


@<TRIPOS>ATOM
      1 C1          9.7550    1.1950    0.9520 c3        1 MOL     -0.321297
      2 C2          8.4180    0.5040    0.4660 c         1 MOL      0.741716
      3 O1          7.5680    0.1070    1.2970 o         1 MOL     -0.688780
      4 H1          9.8210    1.1320    2.0380 hc        1 MOL      0.083212
      5 H2         10.6110    0.6880    0.5060 hc        1 MOL      0.083212
      6 H3          9.7550    2.2420    0.6480 hc        1 MOL      0.083212
      7 N1          8.3270    0.2030   -0.8530 n         1 MOL     -0.645539
      8 C3          7.1620   -0.2990   -1.5860 c3        1 MOL      0.117832
      9 C4          6.8790   -1.7950   -1.3030 c         1 MOL      0.423018
     10 O2          6.9290   -2.6950   -2.1100 o         1 MOL     -0.436419
     11 C5          7.3230    0.1010   -3.0870 c3        1 MOL     -0.192154
     12 C6          8.5890   -0.3990   -3.7150 c         1 MOL      0.666562
     13 O3          9.4690   -1.0770   -3.0910 o         1 MOL     -0.645181
     14 O4          8.6790   -0.2430   -4.9400 o         1 MOL     -0.645181
     15 H4          9.0050    0.6400   -1.4660 hn        1 MOL      0.317344
     16 H5          6.3150    0.3520   -1.3620 h1        1 MOL      0.087887
     17 H6          7.3490    1.1870   -3.0380 hc        1 MOL      0.066463
     18 H7          6.4330   -0.1860   -3.6440 hc        1 MOL      0.066463
     19 N2          6.5690   -2.1310   -0.0270 n         1 MOL     -0.170793
     20 C7          6.1780   -3.4730    0.4720 c3        1 MOL      0.133629
     21 C8          4.7200   -3.7750    0.0740 c         1 MOL      0.453491
     22 O5          4.5570   -4.8080   -0.5670 o         1 MOL     -0.522718
     23 C9          6.3850   -3.6960    1.9890 c3        1 MOL      0.004986
     24 C10         7.7130   -3.1940    2.6270 c3        1 MOL     -0.195041
     25 C11         8.8950   -4.0120    1.9980 c3        1 MOL      0.036214
     26 C12        10.2790   -3.5910    2.5500 c3        1 MOL     -0.182275
     27 N3         10.3560   -3.8110    4.0300 n4        1 MOL     -0.152541
     28 H8          6.7810   -1.4150    0.6600 hn        1 MOL      0.160035
     29 H9          6.8180   -4.2230   -0.0060 h1        1 MOL      0.022919
     30 H10         6.2150   -4.7570    2.1710 hc        1 MOL      0.010427
     31 H11         5.5820   -3.1640    2.5120 hc        1 MOL      0.010427
     32 H12         7.7330   -3.2640    3.7090 hc        1 MOL      0.062038
     33 H13         8.0960   -2.1850    2.4270 hc        1 MOL      0.062038
     34 H14         8.8570   -3.9200    0.9090 hc        1 MOL      0.049724
     35 H15         8.8220   -5.0840    2.1590 hc        1 MOL      0.049724
     36 H16        10.2520   -2.5170    2.3560 hx        1 MOL      0.145311
     37 H17        11.1410   -4.1080    2.1560 hx        1 MOL      0.145311
     38 H18        11.1340   -3.3310    4.4550 hn        1 MOL      0.232283
     39 H19         9.5070   -3.5760    4.5280 hn        1 MOL      0.232283
     40 H20        10.4380   -4.7930    4.2480 hn        1 MOL      0.232283
     41 N4          3.6780   -2.9070    0.2610 n         1 MOL     -0.467237
     42 C13         3.7180   -1.6060    0.9210 c3        1 MOL      0.044194
     43 C14         3.6340   -0.4450   -0.1250 c         1 MOL      0.433084
     44 O6          3.4670   -0.5780   -1.3310 o         1 MOL     -0.502353
     45 C15         2.5010   -1.4900    1.8740 c3        1 MOL     -0.195044
     46 C16         1.1270   -1.7390    1.1560 c         1 MOL      0.822736
     47 O7          0.8850   -0.9600    0.2050 o         1 MOL     -0.729600
     48 O8          0.4320   -2.7080    1.5180 o         1 MOL     -0.729600
     49 H21         2.8760   -3.2590   -0.2350 hn        1 MOL      0.366742
     50 H22         4.5660   -1.4330    1.5830 h1        1 MOL      0.096433
     51 H23         2.4950   -0.5020    2.3270 hc        1 MOL      0.016612
     52 H24         2.6240   -2.2790    2.6250 hc        1 MOL      0.016612
     53 N5          4.1310    0.6780    0.3780 n         1 MOL     -0.287540
     54 C17         4.2060    1.9550   -0.2670 c3        1 MOL     -0.165358
     55 C18         2.9260    2.5450   -0.8180 c         1 MOL      0.618830
     56 O9          1.8360    1.9960   -0.6320 o         1 MOL     -0.570323
     57 H25         4.4100    0.7460    1.3510 hn        1 MOL      0.290449
     58 H26         4.7190    2.0010   -1.2230 h1        1 MOL      0.075755
     59 H27         4.7350    2.7100    0.3170 h1        1 MOL      0.075755
     60 N6          3.0260    3.7420   -1.4100 n         1 MOL     -0.529979
     61 C19         1.8980    4.5180   -1.9260 c3        1 MOL      0.096350
     62 C20         2.2140    6.0570   -1.7400 c         1 MOL      0.582181
     63 O10         3.3760    6.4140   -1.6030 o         1 MOL     -0.572393
     64 C21         1.7540    4.1180   -3.3980 c3        1 MOL     -0.486562
     65 C22         1.1310    2.7480   -3.5490 c         1 MOL      0.760486
     66 O11         0.0110    2.5210   -2.9350 o         1 MOL     -0.672658
     67 O12         1.5890    1.9090   -4.3780 o         1 MOL     -0.672658
     68 H28         3.9080    4.0980   -1.7460 hn        1 MOL      0.325984
     69 H29         1.0490    4.2650   -1.2770 h1        1 MOL      0.148962
     70 H30         2.7400    4.1260   -3.8540 hc        1 MOL      0.139586
     71 H31         1.0880    4.7530   -3.9850 hc        1 MOL      0.139586
     72 N7          1.2670    6.9480   -1.7990 n         1 MOL     -0.463897
     73 C23        -0.1470    6.8500   -1.9230 c3        1 MOL      0.012268
     74 C24        -0.6840    6.2170   -0.6070 c         1 MOL      0.655906
     75 O13        -0.1150    6.4070    0.4370 o         1 MOL     -0.524109
     76 H32         1.6070    7.8880   -1.6690 hn        1 MOL      0.305949
     77 H33        -0.4260    6.1680   -2.7310 h1        1 MOL      0.053173
     78 H34        -0.5920    7.8240   -2.1050 h1        1 MOL      0.053173
     79 N8         -1.7970    5.5850   -0.7010 n         1 MOL     -0.688586
     80 C25        -2.4780    4.9690    0.5020 c3        1 MOL     -0.011818
     81 C26        -1.8230    3.6390    0.9570 c         1 MOL      0.778896
     82 O14        -1.2440    2.9540    0.1450 o         1 MOL     -0.663502
     83 C27        -3.9290    4.8670    0.1270 c3        1 MOL      0.421061
     84 C28        -4.8280    4.3500    1.2360 c3        1 MOL     -0.551017
     85 O15        -4.0700    3.8690   -0.9280 oh        1 MOL     -0.670547
     86 H35        -2.1490    5.3720   -1.6260 hn        1 MOL      0.327054
     87 H36        -2.4060    5.6590    1.3400 h1        1 MOL      0.083833
     88 H37        -4.3850    5.7760   -0.2770 h1        1 MOL      0.026048
     89 H38        -4.3640    4.1930   -1.7830 ho        1 MOL      0.426534
     90 H39        -5.8120    4.5220    0.7900 hc        1 MOL      0.142477
     91 H40        -4.6320    3.2900    1.3600 hc        1 MOL      0.142477
     92 H41        -4.7030    4.9890    2.1140 hc        1 MOL      0.142477
     93 N9         -1.7880    3.3290    2.2870 n         1 MOL     -0.591356
     94 C29        -1.0020    2.3270    2.9520 c3        1 MOL     -0.207068
     95 C30        -1.4970    0.8790    2.6430 c         1 MOL      0.729537
     96 O16        -1.3920    0.4090    1.4890 o         1 MOL     -0.567376
     97 C31         0.4690    2.5390    2.8710 c3        1 MOL      0.246533
     98 C32         0.9260    4.0360    2.9330 c3        1 MOL      0.257916
     99 C33         1.2860    1.8710    4.0110 c3        1 MOL     -0.364196
    100 C34         2.3840    4.3340    2.6120 c3        1 MOL     -0.091398
    101 H42        -2.1100    4.0980    2.8540 hn        1 MOL      0.301323
    102 H43        -1.2090    2.3910    4.0180 h1        1 MOL      0.087297
    103 H44         0.8250    2.1770    1.9050 hc        1 MOL     -0.044330
    104 H45         0.7340    4.5430    3.8730 hc        1 MOL     -0.073132
    105 H46         0.3960    4.6050    2.1670 hc        1 MOL     -0.073132
    106 H47         2.3440    1.9710    3.7910 hc        1 MOL      0.075684
    107 H48         1.0610    2.3990    4.9360 hc        1 MOL      0.075684
    108 H49         1.0500    0.8050    3.9980 hc        1 MOL      0.075684
    109 H50         2.4930    5.3090    2.1510 hc        1 MOL      0.014177
    110 H51         2.9640    4.2460    3.5310 hc        1 MOL      0.014177
    111 H52         2.7770    3.6260    1.8790 hc        1 MOL      0.014177
    112 N10        -1.8010    0.1100    3.7090 n         1 MOL     -0.388840
    113 C35        -2.0660   -1.3300    3.7140 c3        1 MOL     -0.075482
    114 C36        -3.5330   -1.6420    3.7340 c         1 MOL      0.604138
    115 O17        -4.0800   -2.4680    4.4830 o         1 MOL     -0.526651
    116 C37        -1.3140   -2.0530    4.8450 c3        1 MOL      0.464058
    117 C38        -1.6110   -1.4860    6.2360 c3        1 MOL     -0.307558
    118 O18         0.1220   -1.9460    4.8020 oh        1 MOL     -0.604416
    119 H53        -1.8150    0.5570    4.6100 hn        1 MOL      0.225335
    120 H54        -1.6950   -1.6180    2.7350 h1        1 MOL      0.006939
    121 H55        -1.6130   -3.0950    4.9210 h1        1 MOL     -0.013146
    122 H56         0.3620   -2.2230    3.9140 ho        1 MOL      0.355383
    123 H57        -2.6860   -1.5270    6.4380 hc        1 MOL      0.078425
    124 H58        -1.1920   -2.0660    7.0650 hc        1 MOL      0.078425
    125 H59        -1.0940   -0.5390    6.1550 hc        1 MOL      0.078425
    126 N11        -4.2350   -0.9530    2.8000 n         1 MOL     -0.477387
    127 C39        -5.6650   -1.0280    2.5230 c3        1 MOL      0.037578
    128 C40        -5.7510   -1.1280    1.0580 c         1 MOL      0.575447
    129 O19        -5.1010   -0.3640    0.3150 o         1 MOL     -0.476979
    130 C41        -6.5110    0.2110    2.8980 c3        1 MOL      0.077890
    131 C42        -6.9070    0.2850    4.4210 c3        1 MOL     -0.432214
    132 O20        -5.9540    1.4440    2.6100 oh        1 MOL     -0.479331
    133 H60        -3.7180   -0.3970    2.1370 hn        1 MOL      0.194693
    134 H61        -6.0280   -1.9080    3.0600 h1        1 MOL      0.085449
    135 H62        -7.4190    0.0310    2.3420 h1        1 MOL      0.157322
    136 H63        -5.3700    1.5350    3.3610 ho        1 MOL      0.360199
    137 H64        -5.9890    0.3370    5.0040 hc        1 MOL      0.124980
    138 H65        -7.4840    1.1950    4.5560 hc        1 MOL      0.124980
    139 H66        -7.6230   -0.4860    4.7180 hc        1 MOL      0.124980
    140 N12        -6.7000   -1.9640    0.6070 n         1 MOL     -0.581909
    141 C43        -7.1590   -2.2250   -0.7860 c3        1 MOL      0.484742
    142 C44        -5.9710   -2.2490   -1.7860 c         1 MOL      0.301185
    143 O21        -5.9840   -1.5740   -2.8610 o         1 MOL     -0.485999
    144 C45        -8.2250   -1.2180   -1.2060 c3        1 MOL     -0.419739
    145 C46        -9.5580   -1.3600   -0.3770 c3        1 MOL      0.120270
    146 C47       -10.5260   -0.3720   -1.0540 c3        1 MOL      0.077516
    147 C48       -11.9880   -0.3560   -0.5240 c3        1 MOL     -0.030203
    148 N13       -12.6960   -1.6760   -0.7890 n4        1 MOL     -0.083806
    149 H67        -7.0270   -2.6500    1.2700 hn        1 MOL      0.264920
    150 H68        -7.6350   -3.2040   -0.7710 h1        1 MOL     -0.005514
    151 H69        -8.4350   -1.3710   -2.2680 hc        1 MOL      0.131550
    152 H70        -7.7180   -0.2600   -1.0620 hc        1 MOL      0.131550
    153 H71        -9.2740   -1.0510    0.6290 hc        1 MOL     -0.048700
    154 H72       -10.0010   -2.3540   -0.4700 hc        1 MOL     -0.048700
    155 H73       -10.6250   -0.5450   -2.1230 hc        1 MOL      0.031234
    156 H74       -10.0850    0.6210   -0.9240 hc        1 MOL      0.031234
    157 H75       -12.5030    0.4330   -1.0900 hx        1 MOL      0.062895
    158 H76       -12.0130   -0.1100    0.5370 hx        1 MOL      0.062895
    159 H77       -13.6800   -1.6330   -0.5550 hn        1 MOL      0.194039
    160 H78       -12.5870   -2.0010   -1.7420 hn        1 MOL      0.194039
    161 H79       -12.4450   -2.3790   -0.1130 hn        1 MOL      0.194039
    162 N14        -4.9430   -3.0310   -1.3950 n         1 MOL     -0.595647
    163 C49        -3.6150   -2.9280   -2.1390 c3        1 MOL      0.521567
    164 C50        -2.3980   -2.6310   -1.2130 c         1 MOL      0.407340
    165 O22        -1.6120   -1.7550   -1.4480 o         1 MOL     -0.585661
    166 C51        -3.4370   -4.1590   -3.0360 c3        1 MOL     -0.259018
    167 C52        -4.3970   -4.1480   -4.2810 c3        1 MOL     -0.127869
    168 C53        -4.3670   -5.4500   -5.1650 c         1 MOL      0.667478
    169 O23        -4.3140   -6.5440   -4.5470 o         1 MOL     -0.627310
    170 O24        -4.5640   -5.2850   -6.3610 o         1 MOL     -0.627310
    171 H80        -5.0240   -3.5420   -0.5360 hn        1 MOL      0.316111
    172 H81        -3.6470   -2.0070   -2.7310 h1        1 MOL     -0.049470
    173 H82        -3.6830   -5.0570   -2.4740 hc        1 MOL      0.085801
    174 H83        -2.4550   -4.1600   -3.5090 hc        1 MOL      0.085801
    175 H84        -4.1950   -3.3290   -4.9630 hc        1 MOL      0.040184
    176 H85        -5.4360   -3.9870   -4.0070 hc        1 MOL      0.040184
    177 N15        -2.2530   -3.2750   -0.0860 n         1 MOL     -0.413401
    178 C54        -2.5470   -4.6460    0.2700 c3        1 MOL     -0.025761
    179 H86        -2.4070   -5.2850   -0.6020 h1        1 MOL      0.041190
    180 H87        -1.8760   -4.9670    1.0660 h1        1 MOL      0.041190
    181 H88        -3.5790   -4.7200    0.6120 h1        1 MOL      0.041190
    182 H89        -1.4300   -2.9570    0.4120 hn        1 MOL      0.406221
    183 Ca1        -0.5470    0.7130   -1.1530 Ca        1 MOL      1.828757
    184 O25        -2.0280    0.3630   -3.3290 oh        1 MOL     -0.909713
    185 H90        -2.9720    0.4960   -3.2220 ho        1 MOL      0.439697
    186 H91        -1.9590   -0.2650   -4.0520 ho        1 MOL      0.439697
    187 O26         1.3120   -0.1190   -2.9050 oh        1 MOL     -0.909713
    188 H92         2.1460   -0.1070   -2.4310 ho        1 MOL      0.439697
    189 H93         1.4330    0.5240   -3.6030 ho        1 MOL      0.439697
    190 O27        -3.2250    0.9590   -0.7840 oh        1 MOL     -0.909713
    191 H94        -3.9350    0.3320   -0.6840 ho        1 MOL      0.439697
    192 H95        -3.5830    1.7830   -0.4560 ho        1 MOL      0.439697
@<TRIPOS>BOND
     1    1    2 1   
     2    1    4 1   
     3    1    5 1   
     4    1    6 1   
     5    2    3 2   
     6    2    7 1   
     7    7    8 1   
     8    7   15 1   
     9    8    9 1   
    10    8   11 1   
    11    8   16 1   
    12    9   10 2   
    13    9   19 1   
    14   11   12 1   
    15   11   17 1   
    16   11   18 1   
    17   12   13 1   
    18   12   14 1   
    19   19   20 1   
    20   19   28 1   
    21   20   21 1   
    22   20   23 1   
    23   20   29 1   
    24   21   22 2   
    25   21   41 1   
    26   23   24 1   
    27   23   30 1   
    28   23   31 1   
    29   24   25 1   
    30   24   32 1   
    31   24   33 1   
    32   25   26 1   
    33   25   34 1   
    34   25   35 1   
    35   26   27 1   
    36   26   36 1   
    37   26   37 1   
    38   27   38 1   
    39   27   39 1   
    40   27   40 1   
    41   41   42 1   
    42   41   49 1   
    43   42   43 1   
    44   42   45 1   
    45   42   50 1   
    46   43   44 2   
    47   43   53 1   
    48   45   46 1   
    49   45   51 1   
    50   45   52 1   
    51   46   47 1   
    52   46   48 1   
    53   53   54 1   
    54   53   57 1   
    55   54   55 1   
    56   54   58 1   
    57   54   59 1   
    58   55   56 2   
    59   55   60 1   
    60   60   61 1   
    61   60   68 1   
    62   61   62 1   
    63   61   64 1   
    64   61   69 1   
    65   62   63 2   
    66   62   72 1   
    67   64   65 1   
    68   64   70 1   
    69   64   71 1   
    70   65   66 1   
    71   65   67 1   
    72   72   73 1   
    73   72   76 1   
    74   73   74 1   
    75   73   77 1   
    76   73   78 1   
    77   74   75 2   
    78   74   79 1   
    79   79   80 1   
    80   79   86 1   
    81   80   81 1   
    82   80   83 1   
    83   80   87 1   
    84   81   82 2   
    85   81   93 1   
    86   83   84 1   
    87   83   85 1   
    88   83   88 1   
    89   84   90 1   
    90   84   91 1   
    91   84   92 1   
    92   85   89 1   
    93   93   94 1   
    94   93  101 1   
    95   94   95 1   
    96   94   97 1   
    97   94  102 1   
    98   95   96 2   
    99   95  112 1   
   100   97   98 1   
   101   97   99 1   
   102   97  103 1   
   103   98  100 1   
   104   98  104 1   
   105   98  105 1   
   106   99  106 1   
   107   99  107 1   
   108   99  108 1   
   109  100  109 1   
   110  100  110 1   
   111  100  111 1   
   112  112  113 1   
   113  112  119 1   
   114  113  114 1   
   115  113  116 1   
   116  113  120 1   
   117  114  115 2   
   118  114  126 1   
   119  116  117 1   
   120  116  118 1   
   121  116  121 1   
   122  117  123 1   
   123  117  124 1   
   124  117  125 1   
   125  118  122 1   
   126  126  127 1   
   127  126  133 1   
   128  127  128 1   
   129  127  130 1   
   130  127  134 1   
   131  128  129 2   
   132  128  140 1   
   133  130  131 1   
   134  130  132 1   
   135  130  135 1   
   136  131  137 1   
   137  131  138 1   
   138  131  139 1   
   139  132  136 1   
   140  140  141 1   
   141  140  149 1   
   142  141  142 1   
   143  141  144 1   
   144  141  150 1   
   145  142  143 2   
   146  142  162 1   
   147  144  145 1   
   148  144  151 1   
   149  144  152 1   
   150  145  146 1   
   151  145  153 1   
   152  145  154 1   
   153  146  147 1   
   154  146  155 1   
   155  146  156 1   
   156  147  148 1   
   157  147  157 1   
   158  147  158 1   
   159  148  159 1   
   160  148  160 1   
   161  148  161 1   
   162  162  163 1   
   163  162  171 1   
   164  163  164 1   
   165  163  166 1   
   166  163  172 1   
   167  164  165 2   
   168  164  177 1   
   169  166  167 1   
   170  166  173 1   
   171  166  174 1   
   172  167  168 1   
   173  167  175 1   
   174  167  176 1   
   175  168  169 1   
   176  168  170 1   
   177  177  178 1   
   178  177  182 1   
   179  178  179 1   
   180  178  180 1   
   181  178  181 1   
   182  184  185 1   
   183  184  186 1   
   184  187  188 1   
   185  187  189 1   
   186  190  191 1   
   187  190  192 1   
@<TRIPOS>SUBSTRUCTURE
     1 MOL         1 TEMP              0 ****  ****    0 ROOT
