@<TRIPOS>MOLECULE
MOL
  192   187     1     0     0
SMALL
resp


@<TRIPOS>ATOM
      1 C1         -0.5510   -4.5860    3.1120 c3        1 MOL     -0.336577
      2 C2          0.6200   -4.2800    2.0590 c         1 MOL      0.914069
      3 O1          1.2390   -3.2030    2.0690 o         1 MOL     -0.571331
      4 H1         -0.7050   -3.7130    3.7470 hc        1 MOL      0.067925
      5 H2         -1.4730   -4.8120    2.5760 hc        1 MOL      0.067925
      6 H3         -0.2710   -5.4380    3.7300 hc        1 MOL      0.067925
      7 N1          0.8920   -5.2230    1.1580 n         1 MOL     -0.914997
      8 C3          1.8030   -4.9870   -0.0250 c3        1 MOL     -0.208863
      9 C4          3.2140   -4.4160    0.3350 c         1 MOL      0.858130
     10 O2          3.8310   -3.6610   -0.4650 o         1 MOL     -0.586085
     11 C5          0.9830   -4.2220   -1.1080 c3        1 MOL     -0.320650
     12 C6         -0.2430   -5.1150   -1.5650 c         1 MOL      0.943169
     13 O3         -1.1910   -4.5370   -2.1590 o         1 MOL     -0.795536
     14 O4         -0.2020   -6.3720   -1.3480 o         1 MOL     -0.795536
     15 H4          0.7720   -6.2030    1.3650 hn        1 MOL      0.401168
     16 H5          2.0390   -5.9640   -0.4470 h1        1 MOL      0.148191
     17 H6          1.5300   -4.0680   -2.0410 hc        1 MOL      0.151245
     18 H7          0.6300   -3.3200   -0.6220 hc        1 MOL      0.151245
     19 N2          3.8310   -4.7350    1.5110 n         1 MOL     -0.534094
     20 C7          5.2590   -4.3230    1.9260 c3        1 MOL     -0.285070
     21 C8          6.2210   -4.9050    0.8800 c         1 MOL      0.467389
     22 O5          6.0460   -6.0160    0.4630 o         1 MOL     -0.581302
     23 C9          5.6140   -4.7500    3.4150 c3        1 MOL      0.213396
     24 C10         5.7170   -6.2810    3.6200 c3        1 MOL      0.027807
     25 C11         4.7290   -4.0380    4.4710 c3        1 MOL      0.045241
     26 C12         6.2220   -6.7300    4.8760 c3        1 MOL     -0.095723
     27 H8          3.4030   -5.3770    2.1750 hn        1 MOL      0.328104
     28 H9          5.3610   -3.2390    1.8430 h1        1 MOL      0.170662
     29 H10         6.6130   -4.3810    3.6430 hc        1 MOL      0.017602
     30 H11         6.3050   -6.6910    2.7970 hc        1 MOL      0.005951
     31 H12         4.7180   -6.7190    3.5320 hc        1 MOL      0.005951
     32 H13         4.9140   -4.5030    5.4360 hc        1 MOL     -0.034269
     33 H14         4.9970   -2.9850    4.5240 hc        1 MOL     -0.034269
     34 H15         3.6820   -4.2390    4.2320 hc        1 MOL     -0.034269
     35 H16         5.5010   -6.5290    5.6660 hc        1 MOL      0.007114
     36 H17         6.3010   -7.8230    4.8540 hc        1 MOL      0.007114
     37 H18         7.1210   -6.1830    5.1530 hc        1 MOL      0.007114
     38 N3          7.2820   -4.2810    0.4220 n         1 MOL     -0.312139
     39 C13         7.7500   -2.9070    0.8970 c3        1 MOL      0.045067
     40 C14         7.0170   -1.6760    0.2720 c         1 MOL      0.616371
     41 O6          7.0900   -0.5540    0.7630 o         1 MOL     -0.591321
     42 C15         9.2670   -2.8400    0.6000 c3        1 MOL     -0.248715
     43 C16         9.8280   -3.3560   -0.7430 c         1 MOL      0.681569
     44 O7          9.0510   -3.6640   -1.6850 o         1 MOL     -0.708866
     45 O8         11.0850   -3.2400   -0.9200 o         1 MOL     -0.708866
     46 H19         7.8640   -4.8700   -0.1530 hn        1 MOL      0.271499
     47 H20         7.5490   -2.7510    1.9600 h1        1 MOL      0.001355
     48 H21         9.8240   -3.2760    1.4300 hc        1 MOL      0.051882
     49 H22         9.5740   -1.8010    0.7120 hc        1 MOL      0.051882
     50 N4          6.2100   -1.9240   -0.7760 n         1 MOL     -0.440338
     51 C17         5.2960   -0.8590   -1.0880 c3        1 MOL      0.175112
     52 C18         5.8000    0.3140   -1.9200 c         1 MOL      0.445694
     53 O9          6.9900    0.5210   -2.0850 o         1 MOL     -0.490311
     54 H23         5.8780   -2.8500   -0.9830 hn        1 MOL      0.318489
     55 H24         4.8060   -0.4370   -0.2050 h1        1 MOL     -0.002746
     56 H25         4.4690   -1.3170   -1.6250 h1        1 MOL     -0.002746
     57 N5          4.8370    1.1380   -2.4100 n         1 MOL     -0.441279
     58 C19         5.0320    2.4320   -3.1730 c3        1 MOL      0.133011
     59 C20         5.4870    3.5510   -2.2170 c         1 MOL      0.354274
     60 O10         5.8700    4.5780   -2.7670 o         1 MOL     -0.529123
     61 C21         3.7400    2.9630   -3.8830 c3        1 MOL     -0.330696
     62 C22         2.4730    2.7990   -2.9930 c         1 MOL      0.760563
     63 O11         1.3470    2.9130   -3.4630 o         1 MOL     -0.700332
     64 O12         2.6160    2.7580   -1.7430 o         1 MOL     -0.700332
     65 H26         3.8640    0.8760   -2.3320 hn        1 MOL      0.238631
     66 H27         5.7760    2.2430   -3.9490 h1        1 MOL      0.070372
     67 H28         3.6220    2.3580   -4.7860 hc        1 MOL      0.078164
     68 H29         3.8940    3.9780   -4.2320 hc        1 MOL      0.078164
     69 N6          5.3730    3.4870   -0.8560 n         1 MOL     -0.228265
     70 C23         5.5740    4.7080   -0.0100 c3        1 MOL     -0.045655
     71 C24         4.6000    5.7920   -0.2190 c         1 MOL      0.380757
     72 O13         4.8360    6.9000    0.2970 o         1 MOL     -0.556529
     73 H30         5.1680    2.6190   -0.3890 hn        1 MOL      0.254750
     74 H31         6.6270    4.9580   -0.1600 h1        1 MOL      0.073910
     75 H32         5.5210    4.3560    1.0240 h1        1 MOL      0.073910
     76 N7          3.5220    5.4400   -0.8810 n         1 MOL     -0.014345
     77 C25         2.3390    6.2580   -1.0500 c3        1 MOL      0.030598
     78 C26         1.7670    6.7480    0.2650 c         1 MOL      0.603334
     79 O14         1.2370    7.7810    0.4520 o         1 MOL     -0.502917
     80 C27         2.6080    7.3210   -2.1710 c3        1 MOL     -0.033376
     81 C28         1.3930    7.7670   -2.7970 c3        1 MOL     -0.226782
     82 C29         1.3750    9.1760   -3.3940 c         1 MOL      0.651928
     83 N8          2.0160    9.4440   -4.5320 n         1 MOL     -0.776655
     84 O15         0.5770   10.0520   -3.0570 o         1 MOL     -0.573634
     85 H33         3.4880    4.4460   -1.0700 hn        1 MOL      0.068660
     86 H34         1.6200    5.5070   -1.3730 h1        1 MOL      0.110783
     87 H35         3.2720    6.8970   -2.9270 hc        1 MOL      0.036382
     88 H36         3.0810    8.2250   -1.7940 hc        1 MOL      0.036382
     89 H37         0.5520    7.7770   -2.1050 hc        1 MOL      0.083265
     90 H38         1.0750    7.1170   -3.6140 hc        1 MOL      0.083265
     91 H39         2.7480    8.8380   -4.8790 hn        1 MOL      0.338225
     92 H40         1.9220   10.4020   -4.8450 hn        1 MOL      0.338225
     93 N9          1.8360    5.8680    1.3240 n         1 MOL     -0.535441
     94 C30         1.3390    6.1170    2.7020 c3        1 MOL     -0.057662
     95 C31         0.4010    5.0060    3.2040 c         1 MOL      0.539112
     96 O16        -0.3820    5.1850    4.1410 o         1 MOL     -0.612529
     97 C32         2.4020    6.3080    3.7620 c3        1 MOL      0.325532
     98 C33         3.3210    5.0090    3.8980 c3        1 MOL     -0.316144
     99 C34         3.3150    7.4990    3.3390 c3        1 MOL     -0.316144
    100 H41         2.2120    4.9590    1.1040 hn        1 MOL      0.257692
    101 H42         0.7680    7.0430    2.6970 h1        1 MOL      0.109718
    102 H43         1.9780    6.6940    4.6920 hc        1 MOL     -0.040638
    103 H44         2.6650    4.2510    4.3150 hc        1 MOL      0.065125
    104 H45         3.5680    4.7700    2.8690 hc        1 MOL      0.065125
    105 H46         4.1970    5.2470    4.5100 hc        1 MOL      0.065125
    106 H47         3.8940    7.3460    2.4350 hc        1 MOL      0.065125
    107 H48         2.6760    8.3880    3.2660 hc        1 MOL      0.065125
    108 H49         3.9350    7.6860    4.2200 hc        1 MOL      0.065125
    109 N10         0.3550    3.8440    2.5900 n         1 MOL     -0.320986
    110 C35        -0.7460    2.8630    2.6800 c3        1 MOL      0.229080
    111 C36        -1.6320    2.8660    1.4490 c         1 MOL      0.508077
    112 O17        -1.2360    3.4900    0.4360 o         1 MOL     -0.579435
    113 C37        -0.0360    1.5550    3.0390 c3        1 MOL     -0.389740
    114 C38        -1.0090    0.3980    3.4900 c         1 MOL      0.706582
    115 N11        -0.5610   -0.4690    4.3870 n         1 MOL     -0.882023
    116 O18        -2.1280    0.2840    3.0660 o         1 MOL     -0.496927
    117 H50         1.0730    3.7590    1.8880 hn        1 MOL      0.208152
    118 H51        -1.4160    3.1520    3.4880 h1        1 MOL      0.054430
    119 H52         0.7620    1.6900    3.7580 hc        1 MOL      0.125227
    120 H53         0.4640    1.1010    2.1790 hc        1 MOL      0.125227
    121 H54         0.4030   -0.5080    4.6620 hn        1 MOL      0.387898
    122 H55        -1.2060   -1.1850    4.6970 hn        1 MOL      0.387898
    123 N12        -2.7110    2.1580    1.4310 n         1 MOL     -0.455278
    124 C39        -3.7630    2.1390    0.4660 c3        1 MOL      0.420336
    125 C40        -5.0490    1.6080    1.0330 c         1 MOL      0.239319
    126 O19        -5.0950    0.9380    2.0430 o         1 MOL     -0.450495
    127 C41        -3.2670    1.2490   -0.6920 c3        1 MOL     -0.501493
    128 C42        -4.2130    1.3630   -1.9640 ca        1 MOL      0.212769
    129 C43        -4.9960    0.2620   -2.3460 ca        1 MOL     -0.273839
    130 C44        -4.2480    2.5160   -2.7300 ca        1 MOL     -0.273839
    131 C45        -5.7500    0.3070   -3.5430 ca        1 MOL     -0.126982
    132 C46        -4.9650    2.6110   -3.9300 ca        1 MOL     -0.126982
    133 C47        -5.8160    1.5040   -4.3150 ca        1 MOL      0.211056
    134 O20        -6.4010    1.5810   -5.5480 oh        1 MOL     -0.498795
    135 H56        -2.8730    1.5980    2.2540 hn        1 MOL      0.200178
    136 H57        -3.9870    3.1310    0.0860 h1        1 MOL     -0.015774
    137 H58        -3.2870    0.2470   -0.2740 hc        1 MOL      0.207823
    138 H59        -2.2710    1.6080   -0.9700 hc        1 MOL      0.207823
    139 H60        -5.0120   -0.6290   -1.7360 ha        1 MOL      0.174684
    140 H61        -3.6150    3.3380   -2.4420 ha        1 MOL      0.174684
    141 H62        -6.2980   -0.5680   -3.8480 ha        1 MOL      0.114391
    142 H63        -4.9920    3.5580   -4.4410 ha        1 MOL      0.114391
    143 H64        -7.1000    0.9190   -5.6270 ho        1 MOL      0.369343
    144 N13        -6.1760    1.8260    0.3340 n         1 MOL     -0.319137
    145 C48        -7.3960    1.1270    0.6210 c3        1 MOL      0.171561
    146 C49        -7.7150    0.0470   -0.4490 c         1 MOL      0.548796
    147 O21        -8.3370    0.4020   -1.4500 o         1 MOL     -0.582233
    148 C50        -8.4800    2.1490    0.8430 c3        1 MOL      0.028224
    149 C51        -8.1710    2.9910    2.1180 c3        1 MOL     -0.157096
    150 C52        -9.3240    3.9160    2.5060 c         1 MOL      0.677860
    151 O22        -9.9530    3.7090    3.5590 o         1 MOL     -0.693685
    152 O23        -9.7180    4.7990    1.6800 o         1 MOL     -0.693685
    153 H65        -6.1380    2.3760   -0.5230 hn        1 MOL      0.251297
    154 H66        -7.4570    0.5480    1.5380 h1        1 MOL      0.101376
    155 H67        -9.3890    1.5520    0.8800 hc        1 MOL     -0.001540
    156 H68        -8.5300    2.7640   -0.0560 hc        1 MOL     -0.001540
    157 H69        -7.3840    3.7060    1.8500 hc        1 MOL      0.013134
    158 H70        -7.8410    2.4070    2.9740 hc        1 MOL      0.013134
    159 N14        -7.3070   -1.2330   -0.3160 n         1 MOL     -0.676706
    160 C53        -6.4570   -1.7790    0.8130 c3        1 MOL      0.258181
    161 C54        -7.1110   -1.7960    2.2770 c         1 MOL      0.363322
    162 O24        -8.3050   -1.9630    2.3240 o         1 MOL     -0.506062
    163 C55        -5.9720   -3.1560    0.4370 c3        1 MOL     -0.211260
    164 C56        -5.0660   -3.1360   -0.8090 c3        1 MOL     -0.322704
    165 C57        -4.6430   -4.5750   -1.1720 c         1 MOL      1.098086
    166 O25        -4.7590   -5.0480   -2.3240 o         1 MOL     -0.829605
    167 O26        -4.0500   -5.2540   -0.3250 o         1 MOL     -0.829605
    168 H71        -7.5050   -1.9310   -1.0170 hn        1 MOL      0.389671
    169 H72        -5.5380   -1.1930    0.9090 h1        1 MOL      0.109447
    170 H73        -6.8750   -3.7300    0.2440 hc        1 MOL      0.038183
    171 H74        -5.4340   -3.5270    1.3180 hc        1 MOL      0.038183
    172 H75        -4.2150   -2.5220   -0.5290 hc        1 MOL      0.040775
    173 H76        -5.6950   -2.8050   -1.6410 hc        1 MOL      0.040775
    174 N15        -6.3440   -1.3460    3.3130 n         1 MOL     -0.250500
    175 C58        -6.7490   -1.1990    4.7360 c3        1 MOL     -0.071475
    176 H77        -6.7680   -0.1420    5.0000 h1        1 MOL      0.060361
    177 H78        -7.7410   -1.6260    4.8780 h1        1 MOL      0.060361
    178 H79        -6.0330   -1.7200    5.3730 h1        1 MOL      0.060361
    179 H80        -5.4150   -1.0100    3.1070 hn        1 MOL      0.200735
    180 Ca1        -2.7250   -6.9530   -2.1110 Ca        1 MOL      1.656108
    181 O27        -4.4090   -7.5790   -4.1660 oh        1 MOL     -0.831499
    182 O28        -1.8210   -6.4210   -4.5450 oh        1 MOL     -0.831499
    183 H81        -5.3570   -7.6620   -4.0750 ho        1 MOL      0.400687
    184 H82        -1.7950   -7.0780   -5.2440 ho        1 MOL      0.400687
    185 H83        -4.2620   -7.4910   -5.1090 ho        1 MOL      0.400687
    186 H84        -1.6870   -5.5880   -4.9940 ho        1 MOL      0.400687
    187 O29        -5.2400   -7.8550   -1.1410 oh        1 MOL     -0.831499
    188 H85        -6.1350   -7.5730   -0.9390 ho        1 MOL      0.400687
    189 H86        -5.0630   -8.5340   -0.4910 ho        1 MOL      0.400687
    190 O30        -1.8640   -9.1990   -3.3010 oh        1 MOL     -0.831499
    191 H87        -1.0650   -9.3540   -3.8050 ho        1 MOL      0.400687
    192 H88        -2.3410  -10.0220   -3.3620 ho        1 MOL      0.400687
@<TRIPOS>BOND
     1    1    2 1   
     2    1    4 1   
     3    1    5 1   
     4    1    6 1   
     5    2    3 2   
     6    2    7 1   
     7    7    8 1   
     8    7   15 1   
     9    8    9 1   
    10    8   11 1   
    11    8   16 1   
    12    9   10 2   
    13    9   19 1   
    14   11   12 1   
    15   11   17 1   
    16   11   18 1   
    17   12   13 1   
    18   12   14 1   
    19   19   20 1   
    20   19   27 1   
    21   20   21 1   
    22   20   23 1   
    23   20   28 1   
    24   21   22 2   
    25   21   38 1   
    26   23   24 1   
    27   23   25 1   
    28   23   29 1   
    29   24   26 1   
    30   24   30 1   
    31   24   31 1   
    32   25   32 1   
    33   25   33 1   
    34   25   34 1   
    35   26   35 1   
    36   26   36 1   
    37   26   37 1   
    38   38   39 1   
    39   38   46 1   
    40   39   40 1   
    41   39   42 1   
    42   39   47 1   
    43   40   41 2   
    44   40   50 1   
    45   42   43 1   
    46   42   48 1   
    47   42   49 1   
    48   43   44 1   
    49   43   45 1   
    50   50   51 1   
    51   50   54 1   
    52   51   52 1   
    53   51   55 1   
    54   51   56 1   
    55   52   53 2   
    56   52   57 1   
    57   57   58 1   
    58   57   65 1   
    59   58   59 1   
    60   58   61 1   
    61   58   66 1   
    62   59   60 2   
    63   59   69 1   
    64   61   62 1   
    65   61   67 1   
    66   61   68 1   
    67   62   63 1   
    68   62   64 1   
    69   69   70 1   
    70   69   73 1   
    71   70   71 1   
    72   70   74 1   
    73   70   75 1   
    74   71   72 2   
    75   71   76 1   
    76   76   77 1   
    77   76   85 1   
    78   77   78 1   
    79   77   80 1   
    80   77   86 1   
    81   78   79 2   
    82   78   93 1   
    83   80   81 1   
    84   80   87 1   
    85   80   88 1   
    86   81   82 1   
    87   81   89 1   
    88   81   90 1   
    89   82   83 1   
    90   82   84 2   
    91   83   91 1   
    92   83   92 1   
    93   93   94 1   
    94   93  100 1   
    95   94   95 1   
    96   94   97 1   
    97   94  101 1   
    98   95   96 2   
    99   95  109 1   
   100   97   98 1   
   101   97   99 1   
   102   97  102 1   
   103   98  103 1   
   104   98  104 1   
   105   98  105 1   
   106   99  106 1   
   107   99  107 1   
   108   99  108 1   
   109  109  110 1   
   110  109  117 1   
   111  110  111 1   
   112  110  113 1   
   113  110  118 1   
   114  111  112 2   
   115  111  123 1   
   116  113  114 1   
   117  113  119 1   
   118  113  120 1   
   119  114  115 1   
   120  114  116 2   
   121  115  121 1   
   122  115  122 1   
   123  123  124 1   
   124  123  135 1   
   125  124  125 1   
   126  124  127 1   
   127  124  136 1   
   128  125  126 2   
   129  125  144 1   
   130  127  128 1   
   131  127  137 1   
   132  127  138 1   
   133  128  129 ar  
   134  128  130 ar  
   135  129  131 ar  
   136  129  139 1   
   137  130  132 ar  
   138  130  140 1   
   139  131  133 ar  
   140  131  141 1   
   141  132  133 ar  
   142  132  142 1   
   143  133  134 1   
   144  134  143 1   
   145  144  145 1   
   146  144  153 1   
   147  145  146 1   
   148  145  148 1   
   149  145  154 1   
   150  146  147 2   
   151  146  159 1   
   152  148  149 1   
   153  148  155 1   
   154  148  156 1   
   155  149  150 1   
   156  149  157 1   
   157  149  158 1   
   158  150  151 1   
   159  150  152 1   
   160  159  160 1   
   161  159  168 1   
   162  160  161 1   
   163  160  163 1   
   164  160  169 1   
   165  161  162 2   
   166  161  174 1   
   167  163  164 1   
   168  163  170 1   
   169  163  171 1   
   170  164  165 1   
   171  164  172 1   
   172  164  173 1   
   173  165  166 1   
   174  165  167 1   
   175  174  175 1   
   176  174  179 1   
   177  175  176 1   
   178  175  177 1   
   179  175  178 1   
   180  181  183 1   
   181  181  185 1   
   182  182  184 1   
   183  182  186 1   
   184  187  188 1   
   185  187  189 1   
   186  190  191 1   
   187  190  192 1   
@<TRIPOS>SUBSTRUCTURE
     1 MOL         1 TEMP              0 ****  ****    0 ROOT
