@<TRIPOS>MOLECULE
MOL
  195   189     1     0     0
SMALL
resp


@<TRIPOS>ATOM
      1 C1          6.2010    0.6620    5.7550 c3        1 MOL     -0.384394
      2 C2          5.6530    0.4720    4.3210 c         1 MOL      0.836897
      3 O1          5.4850    1.4240    3.5820 o         1 MOL     -0.638431
      4 H1          5.3690    0.7050    6.4590 hc        1 MOL      0.098975
      5 H2          6.8490   -0.1770    6.0110 hc        1 MOL      0.098975
      6 H3          6.7690    1.5900    5.8080 hc        1 MOL      0.098975
      7 N1          5.3640   -0.7520    3.8090 n         1 MOL     -0.744944
      8 C3          5.0270   -1.0540    2.4090 c3        1 MOL      0.666124
      9 C4          3.5950   -0.5030    1.9580 c         1 MOL      0.024021
     10 O2          3.2040   -0.6980    0.8000 o         1 MOL     -0.133008
     11 C5          5.1500   -2.5480    2.2130 c3        1 MOL     -0.278179
     12 C6          6.3210   -3.4130    2.7450 c         1 MOL      0.697291
     13 O3          7.0520   -4.0950    2.0060 o         1 MOL     -0.684303
     14 O4          6.5890   -3.3170    3.9880 o         1 MOL     -0.684303
     15 H4          5.7130   -1.4990    4.4040 hn        1 MOL      0.269336
     16 H5          5.7730   -0.5890    1.7630 h1        1 MOL     -0.024170
     17 H6          5.0150   -2.7500    1.1520 hc        1 MOL     -0.005838
     18 H7          4.2210   -2.9740    2.5610 hc        1 MOL     -0.005838
     19 N2          2.8640    0.2270    2.8090 n         1 MOL     -0.215780
     20 C7          1.4360    0.5290    2.6720 c3        1 MOL      0.164793
     21 C8          1.1220    1.9810    2.3400 c         1 MOL      0.510896
     22 O5          1.5830    2.9180    3.0560 o         1 MOL     -0.518121
     23 C9          0.6730    0.1370    3.9320 c3        1 MOL     -0.030644
     24 C10         0.8180   -1.4160    4.1660 c3        1 MOL     -0.039070
     25 C11         0.0140   -1.9570    5.4390 c3        1 MOL      0.125144
     26 C12        -0.0580   -3.4780    5.3090 c3        1 MOL      0.061135
     27 N3         -0.9480   -4.1250    6.3570 n4        1 MOL     -0.502838
     28 H8          3.3540    0.3300    3.6940 hn        1 MOL      0.210949
     29 H9          1.0530   -0.1070    1.8720 h1        1 MOL      0.010784
     30 H10        -0.3550    0.4910    3.8970 hc        1 MOL      0.034749
     31 H11         1.1800    0.6580    4.7410 hc        1 MOL      0.034749
     32 H12         1.8660   -1.5970    4.4010 hc        1 MOL     -0.011718
     33 H13         0.6530   -1.9680    3.2440 hc        1 MOL     -0.011718
     34 H14        -0.9830   -1.5170    5.5000 hc        1 MOL     -0.009990
     35 H15         0.4670   -1.6880    6.4000 hc        1 MOL     -0.009990
     36 H16         0.9760   -3.7890    5.5020 hx        1 MOL      0.086679
     37 H17        -0.3920   -3.6630    4.2890 hx        1 MOL      0.086679
     38 H18        -0.6420   -3.9410    7.2980 hn        1 MOL      0.365640
     39 H19        -1.8890   -3.8090    6.1590 hn        1 MOL      0.365640
     40 H20        -0.8630   -5.1290    6.2700 hn        1 MOL      0.365640
     41 N4          0.1680    2.2390    1.3630 n         1 MOL     -0.420512
     42 C13        -0.6710    1.3690    0.5030 c3        1 MOL      0.028940
     43 C14        -1.4040    0.2160    1.1450 c         1 MOL      0.283947
     44 O6         -1.0770   -0.9180    1.0380 o         1 MOL     -0.442142
     45 C15         0.1430    0.9510   -0.7400 c3        1 MOL     -0.288713
     46 C16         0.5990    2.0470   -1.7190 c         1 MOL      0.492494
     47 O7          0.3750    3.2460   -1.4200 o         1 MOL     -0.695241
     48 O8          1.2970    1.7720   -2.7150 o         1 MOL     -0.695241
     49 H21         0.2170    3.2080    1.0480 hn        1 MOL      0.193846
     50 H22        -1.3430    2.1350    0.1190 h1        1 MOL      0.109041
     51 H23        -0.5490    0.3660   -1.3570 hc        1 MOL      0.185083
     52 H24         1.0290    0.3970   -0.4360 hc        1 MOL      0.185083
     53 N5         -2.4040    0.4000    2.0080 n         1 MOL     -0.238307
     54 C17        -3.0300    1.5960    2.5340 c3        1 MOL      0.101809
     55 C18        -4.0810    1.1850    3.6020 c         1 MOL      0.549930
     56 O9         -3.8630    0.1100    4.1750 o         1 MOL     -0.551979
     57 H25        -2.8670   -0.4550    2.3040 hn        1 MOL      0.240641
     58 H26        -3.4580    2.1770    1.7220 h1        1 MOL     -0.013152
     59 H27        -2.2100    2.0860    3.0470 h1        1 MOL     -0.013152
     60 N6         -5.0390    2.0970    3.8870 n         1 MOL     -0.408935
     61 C19        -5.2530    3.2940    3.1320 c3        1 MOL     -0.116502
     62 C20        -6.0320    3.0470    1.7990 c         1 MOL      0.584956
     63 O10        -6.8060    2.0840    1.6470 o         1 MOL     -0.450110
     64 C21        -6.0040    4.3530    4.0430 c3        1 MOL     -0.102658
     65 C22        -7.3200    3.6920    4.4560 c         1 MOL      0.708943
     66 O11        -7.4210    2.7520    5.3010 o         1 MOL     -0.683354
     67 O12        -8.2660    4.2680    3.9350 o         1 MOL     -0.683354
     68 H28        -5.8070    1.7690    4.4640 hn        1 MOL      0.273245
     69 H29        -4.2450    3.6420    2.8990 h1        1 MOL      0.049138
     70 H30        -6.2120    5.2430    3.4480 hc        1 MOL      0.018117
     71 H31        -5.3950    4.6930    4.8760 hc        1 MOL      0.018117
     72 N7         -5.6730    3.8720    0.7730 n         1 MOL     -0.329346
     73 C23        -6.2100    3.9470   -0.5490 c3        1 MOL     -0.543186
     74 C24        -6.0710    2.6940   -1.4180 c         1 MOL      0.507366
     75 O13        -6.7440    2.6740   -2.4530 o         1 MOL     -0.559607
     76 H32        -5.0100    4.6260    0.9130 hn        1 MOL      0.250545
     77 H33        -5.8680    4.8460   -1.0630 h1        1 MOL      0.235059
     78 H34        -7.2870    4.0630   -0.4060 h1        1 MOL      0.235059
     79 N8         -5.2110    1.7560   -1.0610 n         1 MOL     -0.252804
     80 C25        -4.9090    0.6070   -1.8920 c3        1 MOL      0.154193
     81 C26        -5.3070   -0.6260   -1.1260 c         1 MOL      0.410976
     82 O14        -5.1010   -0.7490    0.0800 o         1 MOL     -0.447682
     83 C27        -3.4530    0.4940   -2.3220 c3        1 MOL      0.413588
     84 C28        -2.9600    1.7150   -3.0600 c3        1 MOL     -0.522731
     85 O15        -3.3880   -0.6600   -3.2030 oh        1 MOL     -0.646360
     86 H35        -4.7860    1.8210   -0.1470 hn        1 MOL      0.179771
     87 H36        -5.5650    0.7450   -2.7520 h1        1 MOL      0.057287
     88 H37        -2.8140    0.2590   -1.4680 h1        1 MOL     -0.066836
     89 H38        -2.5440   -1.0450   -2.9830 ho        1 MOL      0.377506
     90 H39        -1.9240    1.5000   -3.3330 hc        1 MOL      0.138942
     91 H40        -3.5190    1.9160   -3.9680 hc        1 MOL      0.138942
     92 H41        -2.8490    2.4960   -2.3030 hc        1 MOL      0.138942
     93 N9         -5.9360   -1.5640   -1.8550 n         1 MOL     -0.462784
     94 C29        -6.3630   -2.9440   -1.4040 c3        1 MOL     -0.177758
     95 C30        -5.1640   -3.8510   -0.9920 c         1 MOL      0.443872
     96 O16        -5.1870   -4.7120   -0.0620 o         1 MOL     -0.526123
     97 C31        -7.2790   -3.6370   -2.5110 c3        1 MOL      0.094236
     98 C32        -8.5660   -2.8730   -2.9500 c3        1 MOL      0.095745
     99 C33        -7.6920   -4.9960   -1.8760 c3        1 MOL     -0.232742
    100 C34        -9.5550   -3.4920   -3.9610 c3        1 MOL     -0.317344
    101 H42        -6.0580   -1.3710   -2.8420 hn        1 MOL      0.281939
    102 H43        -6.9580   -2.8070   -0.5020 h1        1 MOL      0.192249
    103 H44        -6.7650   -3.9290   -3.4220 hc        1 MOL      0.007222
    104 H45        -8.2540   -1.9180   -3.3920 hc        1 MOL      0.022058
    105 H46        -9.1080   -2.5900   -2.0450 hc        1 MOL      0.022058
    106 H47        -8.4030   -5.6160   -2.4350 hc        1 MOL      0.068404
    107 H48        -6.7570   -5.5540   -1.8380 hc        1 MOL      0.068404
    108 H49        -8.1760   -4.7620   -0.9360 hc        1 MOL      0.068404
    109 H50        -9.0220   -3.6940   -4.8930 hc        1 MOL      0.079763
    110 H51        -9.9640   -4.4120   -3.5530 hc        1 MOL      0.079763
    111 H52       -10.3370   -2.7390   -4.0990 hc        1 MOL      0.079763
    112 N10        -3.9830   -3.6330   -1.6390 n         1 MOL     -0.265385
    113 C35        -2.7260   -4.3290   -1.2900 c3        1 MOL      0.126509
    114 C36        -1.4700   -3.3650   -1.3260 c         1 MOL      0.304542
    115 O17        -1.5520   -2.2100   -1.7690 o         1 MOL     -0.374851
    116 C37        -2.4660   -5.5120   -2.2230 c3        1 MOL      0.286446
    117 C38        -3.7310   -6.1210   -2.8310 c3        1 MOL     -0.225547
    118 O18        -1.8530   -6.5410   -1.5320 oh        1 MOL     -0.650838
    119 H53        -4.0480   -2.9800   -2.4060 hn        1 MOL      0.224331
    120 H54        -2.7730   -4.6740   -0.2570 h1        1 MOL      0.119524
    121 H55        -1.8710   -5.2440   -3.0900 h1        1 MOL      0.017720
    122 H56        -1.6270   -7.2300   -2.1690 ho        1 MOL      0.411537
    123 H57        -3.4390   -6.9820   -3.4400 hc        1 MOL      0.052351
    124 H58        -4.4210   -6.4250   -2.0540 hc        1 MOL      0.052351
    125 H59        -4.1120   -5.3450   -3.4850 hc        1 MOL      0.052351
    126 N11        -0.3150   -3.9340   -0.8720 n         1 MOL     -0.435573
    127 C39         0.9000   -3.1320   -0.5800 c3        1 MOL      0.096248
    128 C40         1.5990   -2.6840   -1.9070 c         1 MOL      0.237453
    129 O19         1.0810   -2.9900   -2.9920 o         1 MOL     -0.473107
    130 C41         1.8540   -3.9460    0.3180 c3        1 MOL      0.749371
    131 C42         2.3370   -5.2600   -0.3160 c3        1 MOL     -0.243441
    132 O20         1.2990   -4.3310    1.6130 oh        1 MOL     -0.752337
    133 H60        -0.2710   -4.8980   -0.5630 hn        1 MOL      0.252774
    134 H61         0.6060   -2.1940   -0.1060 h1        1 MOL      0.065628
    135 H62         2.7260   -3.2860    0.4080 h1        1 MOL     -0.157671
    136 H63         1.9230   -4.8820    2.1050 ho        1 MOL      0.389435
    137 H64         1.5090   -5.9540   -0.4970 hc        1 MOL      0.036796
    138 H65         2.7990   -4.9420   -1.2490 hc        1 MOL      0.036796
    139 H66         3.0300   -5.7660    0.3490 hc        1 MOL      0.036796
    140 N12         2.6600   -1.8390   -1.8190 n         1 MOL      0.009289
    141 C43         3.4150   -1.2760   -2.9610 c3        1 MOL     -0.292789
    142 C44         4.2230   -0.0580   -2.6780 c         1 MOL      0.738450
    143 O21         4.8470    0.4190   -3.5860 o         1 MOL     -0.648199
    144 C45         4.3390   -2.3890   -3.5050 c3        1 MOL     -0.060055
    145 C46         5.4400   -2.9640   -2.5280 c3        1 MOL     -0.073534
    146 C47         6.8700   -2.5550   -2.7760 c3        1 MOL      0.005339
    147 C48         7.9450   -3.2060   -1.7820 c3        1 MOL      0.007504
    148 N13         8.1480   -4.6880   -2.0360 n4        1 MOL     -0.297475
    149 H67         2.9840   -1.5550   -0.9090 hn        1 MOL      0.017144
    150 H68         2.7070   -0.9490   -3.7290 h1        1 MOL      0.179293
    151 H69         4.7550   -2.0750   -4.4680 hc        1 MOL      0.055813
    152 H70         3.7710   -3.2120   -3.9240 hc        1 MOL      0.055813
    153 H71         5.3940   -4.0550   -2.5470 hc        1 MOL      0.006687
    154 H72         5.2640   -2.6850   -1.4940 hc        1 MOL      0.006687
    155 H73         6.9510   -1.4750   -2.6580 hc        1 MOL      0.026712
    156 H74         7.2280   -2.8010   -3.7750 hc        1 MOL      0.026712
    157 H75         7.5960   -2.9880   -0.7830 hx        1 MOL      0.094882
    158 H76         8.8890   -2.7130   -2.0000 hx        1 MOL      0.094882
    159 H77         7.4270   -5.1620   -1.5250 hn        1 MOL      0.304174
    160 H78         8.0680   -4.9720   -3.0030 hn        1 MOL      0.304174
    161 H79         9.0040   -5.0810   -1.6620 hn        1 MOL      0.304174
    162 N14         4.2680    0.4680   -1.4930 n         1 MOL     -0.008601
    163 C49         4.8980    1.7690   -1.1850 c3        1 MOL     -0.568560
    164 C50         6.4460    1.6340   -0.8860 c         1 MOL      0.566311
    165 O22         6.8910    0.6580   -0.2850 o         1 MOL     -0.500268
    166 C51         4.0050    2.5350   -0.2160 c3        1 MOL      1.327899
    167 C52         4.4890    3.9440    0.1500 c3        1 MOL     -1.109513
    168 C53         4.4750    4.9380   -1.0160 c         1 MOL      1.138070
    169 O23         5.4680    4.9750   -1.7500 o         1 MOL     -0.880483
    170 O24         3.4300    5.6090   -1.2000 o         1 MOL     -0.880483
    171 H80         3.9390   -0.0480   -0.6900 hn        1 MOL     -0.048513
    172 H81         4.9060    2.4050   -2.0610 h1        1 MOL      0.099351
    173 H82         3.8560    1.9670    0.7060 hc        1 MOL     -0.297351
    174 H83         3.0390    2.6740   -0.7000 hc        1 MOL     -0.297351
    175 H84         5.4800    4.0060    0.5950 hc        1 MOL      0.231631
    176 H85         3.7920    4.2730    0.9150 hc        1 MOL      0.231631
    177 N15         7.2410    2.6890   -1.2270 n         1 MOL     -0.478561
    178 C54         8.6510    2.8490   -0.9520 c3        1 MOL     -0.007645
    179 H86         9.2090    2.8200   -1.8880 h1        1 MOL      0.045298
    180 H87         8.8190    3.8070   -0.4590 h1        1 MOL      0.045298
    181 H88         8.9890    2.0420   -0.3020 h1        1 MOL      0.045298
    182 H89         6.8450    3.4380   -1.7730 hn        1 MOL      0.462427
    183 Ca1         0.9890    5.5510   -2.1860 Ca        1 MOL      1.799477
    184 O25         2.8350    6.7640   -3.9410 oh        1 MOL     -0.904645
    185 H90         3.6030    6.9920   -3.4190 ho        1 MOL      0.451226
    186 H91         3.1860    6.3670   -4.7380 ho        1 MOL      0.451226
    187 O26        -1.6440    5.4990   -1.9290 oh        1 MOL     -0.904645
    188 H92        -2.2880    5.7700   -2.5800 ho        1 MOL      0.451226
    189 H93        -2.0830    4.7900   -1.4410 ho        1 MOL      0.451226
    190 O27        -0.0750    5.7590   -4.6960 oh        1 MOL     -0.904645
    191 H94         0.2230    5.9830   -5.5760 ho        1 MOL      0.451226
    192 H95        -1.0110    5.9730   -4.7030 ho        1 MOL      0.451226
    193 O28         2.7020    3.7080   -3.4340 oh        1 MOL     -0.904645
    194 H96         3.1980    3.3040   -4.1520 ho        1 MOL      0.451226
    195 H97         2.2360    2.9840   -3.0300 ho        1 MOL      0.451226
@<TRIPOS>BOND
     1    1    2 1   
     2    1    4 1   
     3    1    5 1   
     4    1    6 1   
     5    2    3 2   
     6    2    7 1   
     7    7    8 1   
     8    7   15 1   
     9    8    9 1   
    10    8   11 1   
    11    8   16 1   
    12    9   10 2   
    13    9   19 1   
    14   11   12 1   
    15   11   17 1   
    16   11   18 1   
    17   12   13 1   
    18   12   14 1   
    19   19   20 1   
    20   19   28 1   
    21   20   21 1   
    22   20   23 1   
    23   20   29 1   
    24   21   22 2   
    25   21   41 1   
    26   23   24 1   
    27   23   30 1   
    28   23   31 1   
    29   24   25 1   
    30   24   32 1   
    31   24   33 1   
    32   25   26 1   
    33   25   34 1   
    34   25   35 1   
    35   26   27 1   
    36   26   36 1   
    37   26   37 1   
    38   27   38 1   
    39   27   39 1   
    40   27   40 1   
    41   41   42 1   
    42   41   49 1   
    43   42   43 1   
    44   42   45 1   
    45   42   50 1   
    46   43   44 2   
    47   43   53 1   
    48   45   46 1   
    49   45   51 1   
    50   45   52 1   
    51   46   47 1   
    52   46   48 1   
    53   53   54 1   
    54   53   57 1   
    55   54   55 1   
    56   54   58 1   
    57   54   59 1   
    58   55   56 2   
    59   55   60 1   
    60   60   61 1   
    61   60   68 1   
    62   61   62 1   
    63   61   64 1   
    64   61   69 1   
    65   62   63 2   
    66   62   72 1   
    67   64   65 1   
    68   64   70 1   
    69   64   71 1   
    70   65   66 1   
    71   65   67 1   
    72   72   73 1   
    73   72   76 1   
    74   73   74 1   
    75   73   77 1   
    76   73   78 1   
    77   74   75 2   
    78   74   79 1   
    79   79   80 1   
    80   79   86 1   
    81   80   81 1   
    82   80   83 1   
    83   80   87 1   
    84   81   82 2   
    85   81   93 1   
    86   83   84 1   
    87   83   85 1   
    88   83   88 1   
    89   84   90 1   
    90   84   91 1   
    91   84   92 1   
    92   85   89 1   
    93   93   94 1   
    94   93  101 1   
    95   94   95 1   
    96   94   97 1   
    97   94  102 1   
    98   95   96 2   
    99   95  112 1   
   100   97   98 1   
   101   97   99 1   
   102   97  103 1   
   103   98  100 1   
   104   98  104 1   
   105   98  105 1   
   106   99  106 1   
   107   99  107 1   
   108   99  108 1   
   109  100  109 1   
   110  100  110 1   
   111  100  111 1   
   112  112  113 1   
   113  112  119 1   
   114  113  114 1   
   115  113  116 1   
   116  113  120 1   
   117  114  115 2   
   118  114  126 1   
   119  116  117 1   
   120  116  118 1   
   121  116  121 1   
   122  117  123 1   
   123  117  124 1   
   124  117  125 1   
   125  118  122 1   
   126  126  127 1   
   127  126  133 1   
   128  127  128 1   
   129  127  130 1   
   130  127  134 1   
   131  128  129 2   
   132  128  140 1   
   133  130  131 1   
   134  130  132 1   
   135  130  135 1   
   136  131  137 1   
   137  131  138 1   
   138  131  139 1   
   139  132  136 1   
   140  140  141 1   
   141  140  149 1   
   142  141  142 1   
   143  141  144 1   
   144  141  150 1   
   145  142  143 2   
   146  142  162 1   
   147  144  145 1   
   148  144  151 1   
   149  144  152 1   
   150  145  146 1   
   151  145  153 1   
   152  145  154 1   
   153  146  147 1   
   154  146  155 1   
   155  146  156 1   
   156  147  148 1   
   157  147  157 1   
   158  147  158 1   
   159  148  159 1   
   160  148  160 1   
   161  148  161 1   
   162  162  163 1   
   163  162  171 1   
   164  163  164 1   
   165  163  166 1   
   166  163  172 1   
   167  164  165 2   
   168  164  177 1   
   169  166  167 1   
   170  166  173 1   
   171  166  174 1   
   172  167  168 1   
   173  167  175 1   
   174  167  176 1   
   175  168  169 1   
   176  168  170 1   
   177  177  178 1   
   178  177  182 1   
   179  178  179 1   
   180  178  180 1   
   181  178  181 1   
   182  184  185 1   
   183  184  186 1   
   184  187  188 1   
   185  187  189 1   
   186  190  191 1   
   187  190  192 1   
   188  193  194 1   
   189  193  195 1   
@<TRIPOS>SUBSTRUCTURE
     1 MOL         1 TEMP              0 ****  ****    0 ROOT
