@<TRIPOS>MOLECULE
MOL
  186   183     1     0     0
SMALL
resp


@<TRIPOS>ATOM
      1 C1          3.8230    4.3350   -2.8780 c3        1 MOL     -0.400868
      2 C2          4.7360    3.6020   -1.8860 c         1 MOL      0.856978
      3 O1          4.2740    3.3830   -0.7430 o         1 MOL     -0.652180
      4 H1          3.9910    3.9440   -3.8810 hc        1 MOL      0.097844
      5 H2          2.7820    4.1780   -2.5970 hc        1 MOL      0.097844
      6 H3          4.0490    5.4010   -2.8610 hc        1 MOL      0.097844
      7 N1          5.9940    3.2700   -2.2120 n         1 MOL     -0.743650
      8 C3          6.9800    2.3650   -1.5700 c3        1 MOL      0.428193
      9 C4          6.2680    0.9860   -1.3430 c         1 MOL      0.315831
     10 O2          5.9230    0.6700   -0.2350 o         1 MOL     -0.554325
     11 C5          7.7270    3.0140   -0.3760 c3        1 MOL     -0.233991
     12 C6          6.9690    3.8200    0.6800 c         1 MOL      0.781449
     13 O3          6.1860    3.2420    1.4690 o         1 MOL     -0.738102
     14 O4          7.1860    5.0370    0.8700 o         1 MOL     -0.738102
     15 H4          6.2370    3.3810   -3.1880 hn        1 MOL      0.295176
     16 H5          7.8020    2.2080   -2.2710 h1        1 MOL     -0.000964
     17 H6          8.4860    3.6670   -0.8130 hc        1 MOL      0.031430
     18 H7          8.2260    2.2330    0.1970 hc        1 MOL      0.031430
     19 N2          5.9420    0.2920   -2.4230 n         1 MOL     -0.370734
     20 C7          5.0900   -0.8880   -2.5640 c3        1 MOL      0.243876
     21 C8          5.6810   -2.2080   -2.0220 c         1 MOL      0.198531
     22 O5          5.8240   -3.2090   -2.7600 o         1 MOL     -0.490255
     23 C9          3.5740   -0.6440   -2.3350 c3        1 MOL     -0.023746
     24 C10         2.7510   -1.8870   -2.6760 c3        1 MOL      0.042825
     25 C11         3.1800    0.6390   -3.0990 c3        1 MOL     -0.316662
     26 C12         2.5830   -2.3040   -4.1820 c3        1 MOL     -0.290314
     27 H8          6.4060    0.5620   -3.2780 hn        1 MOL      0.236957
     28 H9          5.0680   -1.0460   -3.6400 h1        1 MOL      0.004206
     29 H10         3.5320   -0.3790   -1.2790 hc        1 MOL     -0.026772
     30 H11         1.7280   -1.6690   -2.3800 hc        1 MOL      0.096082
     31 H12         3.1180   -2.7780   -2.1590 hc        1 MOL      0.096082
     32 H13         2.0870    0.6600   -3.0030 hc        1 MOL      0.069031
     33 H14         3.5830    1.5680   -2.7010 hc        1 MOL      0.069031
     34 H15         3.4360    0.5540   -4.1550 hc        1 MOL      0.069031
     35 H16         1.9160   -3.1620   -4.1390 hc        1 MOL      0.057703
     36 H17         2.1080   -1.5350   -4.7880 hc        1 MOL      0.057703
     37 H18         3.4890   -2.7280   -4.6100 hc        1 MOL      0.057703
     38 N3          6.0910   -2.1750   -0.6790 n         1 MOL     -0.070145
     39 C13         6.7920   -3.2690   -0.1270 c3        1 MOL      0.211256
     40 C14         6.0880   -4.7140    0.0090 c         1 MOL      0.552797
     41 O6          6.6570   -5.6030   -0.5460 o         1 MOL     -0.581364
     42 C15         7.7070   -2.8080    1.0040 c3        1 MOL     -0.411079
     43 C16         8.3410   -1.4780    0.8460 c         1 MOL      0.963275
     44 O7          8.8430   -1.1110   -0.2040 o         1 MOL     -0.791835
     45 O8          8.4090   -0.7500    1.8660 o         1 MOL     -0.791835
     46 H19         6.0550   -1.2880   -0.1930 hn        1 MOL      0.246009
     47 H20         7.5370   -3.5430   -0.8840 h1        1 MOL     -0.002489
     48 H21         8.5280   -3.5260    1.1510 hc        1 MOL      0.049549
     49 H22         7.0420   -2.8550    1.8640 hc        1 MOL      0.049549
     50 N4          4.9310   -4.8910    0.6080 n         1 MOL     -0.535491
     51 C17         3.8880   -3.8710    0.8940 c3        1 MOL      0.140110
     52 C18         2.6250   -4.3800    1.5230 c         1 MOL      0.534093
     53 O9          2.3530   -5.5240    1.4040 o         1 MOL     -0.595421
     54 H23         4.5830   -5.8320    0.7060 hn        1 MOL      0.283002
     55 H24         3.5090   -3.4410   -0.0320 h1        1 MOL      0.038141
     56 H25         4.3730   -3.1500    1.5620 h1        1 MOL      0.038141
     57 N5          1.7880   -3.6140    2.2060 n         1 MOL     -0.358007
     58 C19         1.9180   -2.1890    2.5550 c3        1 MOL      0.168804
     59 C20         2.0720   -1.2330    1.3790 c         1 MOL      0.062056
     60 O10         3.1470   -0.6710    1.1680 o         1 MOL     -0.575148
     61 C21         3.0710   -1.9950    3.5900 c3        1 MOL     -0.291645
     62 C22         2.7530   -0.6870    4.2530 c         1 MOL      0.734260
     63 O11         2.4540   -0.6900    5.4910 o         1 MOL     -0.704781
     64 O12         2.9260    0.3890    3.6160 o         1 MOL     -0.704781
     65 H26         1.0390   -4.1590    2.5980 hn        1 MOL      0.226893
     66 H27         0.9900   -1.9300    3.0680 h1        1 MOL      0.093663
     67 H28         4.0200   -1.9930    3.0590 hc        1 MOL      0.064838
     68 H29         3.0580   -2.7630    4.3690 hc        1 MOL      0.064838
     69 N6          1.0160   -0.9930    0.5950 n         1 MOL      0.018259
     70 C23        -0.3100   -1.5730    0.7080 c3        1 MOL      0.052965
     71 C24        -0.6640   -2.8270   -0.0610 c         1 MOL      0.410080
     72 O13         0.0430   -3.0360   -1.0090 o         1 MOL     -0.552720
     73 H30         1.1370   -0.2210   -0.0460 hn        1 MOL      0.148802
     74 H31        -1.0480   -0.7820    0.5570 h1        1 MOL      0.000100
     75 H32        -0.4330   -1.8330    1.7610 h1        1 MOL      0.000100
     76 N7         -1.8170   -3.4590    0.1980 n         1 MOL     -0.123109
     77 C25        -2.2890   -4.7290   -0.4340 c3        1 MOL     -0.280782
     78 C26        -3.0120   -4.5040   -1.7640 c         1 MOL      0.471956
     79 O14        -3.4320   -5.5010   -2.4120 o         1 MOL     -0.527016
     80 C27        -3.0400   -5.5460    0.5100 c3        1 MOL      0.361782
     81 C28        -2.4590   -6.2530    1.7680 c3        1 MOL     -0.587781
     82 C29        -2.0240   -5.1910    2.7520 c         1 MOL      0.682107
     83 N8         -2.8940   -4.8120    3.6470 n         1 MOL     -0.778730
     84 O15        -0.9390   -4.6400    2.7930 o         1 MOL     -0.516286
     85 H33        -2.4140   -3.0520    0.9090 hn        1 MOL      0.203669
     86 H34        -1.4180   -5.3320   -0.6820 h1        1 MOL      0.200006
     87 H35        -3.3600   -6.2840   -0.2210 hc        1 MOL     -0.042502
     88 H36        -4.0210   -5.1010    0.7130 hc        1 MOL     -0.042502
     89 H37        -1.6120   -6.8970    1.5340 hc        1 MOL      0.169973
     90 H38        -3.2390   -6.8340    2.2460 hc        1 MOL      0.169973
     91 H39        -3.8270   -5.1780    3.5690 hn        1 MOL      0.363639
     92 H40        -2.5880   -4.1950    4.3790 hn        1 MOL      0.363639
     93 N9         -3.1460   -3.2110   -2.1250 n         1 MOL     -0.097421
     94 C30        -3.7080   -2.6010   -3.3590 c3        1 MOL     -0.171534
     95 C31        -5.1230   -1.9770   -3.2080 c         1 MOL      0.537391
     96 O16        -5.8530   -1.8250   -4.1490 o         1 MOL     -0.521071
     97 C32        -2.7050   -1.5210   -3.8640 c3        1 MOL      0.198768
     98 C33        -1.4800   -2.2820   -4.4150 c3        1 MOL     -0.252689
     99 C34        -2.2720   -0.4660   -2.8480 c3        1 MOL     -0.252689
    100 H41        -2.8210   -2.5640   -1.4190 hn        1 MOL      0.005710
    101 H42        -3.7250   -3.4890   -3.9840 h1        1 MOL      0.126301
    102 H43        -3.1310   -1.0300   -4.7360 hc        1 MOL      0.015886
    103 H44        -0.8420   -1.5240   -4.8630 hc        1 MOL      0.067460
    104 H45        -0.9590   -2.8990   -3.6810 hc        1 MOL      0.067460
    105 H46        -1.7920   -3.0110   -5.1650 hc        1 MOL      0.067460
    106 H47        -1.8870   -0.8840   -1.9090 hc        1 MOL      0.067460
    107 H48        -1.4570    0.0970   -3.3010 hc        1 MOL      0.067460
    108 H49        -3.1410    0.1550   -2.6320 hc        1 MOL      0.067460
    109 N10        -5.5220   -1.6740   -1.9610 n         1 MOL     -0.636455
    110 C35        -6.9050   -1.2890   -1.6550 c3        1 MOL      0.593272
    111 C36        -7.1910    0.1960   -1.3550 c         1 MOL      0.395485
    112 O17        -8.2940    0.7060   -1.5700 o         1 MOL     -0.529622
    113 C37        -7.6110   -2.2470   -0.6100 c3        1 MOL     -0.703323
    114 C38        -7.6460   -3.7000   -0.9740 c         1 MOL      0.848319
    115 N11        -8.0610   -4.1350   -2.1780 n         1 MOL     -0.831031
    116 O18        -7.4140   -4.5670   -0.2000 o         1 MOL     -0.588575
    117 H50        -4.8680   -1.6310   -1.1900 hn        1 MOL      0.351065
    118 H51        -7.5280   -1.4790   -2.5350 h1        1 MOL     -0.039154
    119 H52        -8.6580   -1.9410   -0.4900 hc        1 MOL      0.153283
    120 H53        -7.0410   -2.1960    0.3210 hc        1 MOL      0.153283
    121 H54        -8.3640   -3.4340   -2.8530 hn        1 MOL      0.369188
    122 H55        -8.2330   -5.1230   -2.2770 hn        1 MOL      0.369188
    123 N12        -6.1900    0.8970   -0.8490 n         1 MOL     -0.502943
    124 C39        -6.2720    2.2790   -0.2800 c3        1 MOL      0.437524
    125 C40        -4.9250    2.8630    0.0780 c         1 MOL      0.310955
    126 O19        -3.9650    2.1830    0.3860 o         1 MOL     -0.402770
    127 C41        -7.1660    2.3200    0.9590 c3        1 MOL     -0.436072
    128 C42        -6.9580    1.1860    1.9530 ca        1 MOL      0.258343
    129 C43        -8.0580    0.2630    2.0450 ca        1 MOL     -0.246820
    130 C44        -5.8200    0.9840    2.6600 ca        1 MOL     -0.246820
    131 C45        -7.9310   -0.8550    2.8880 ca        1 MOL     -0.144352
    132 C46        -5.7380   -0.0800    3.5790 ca        1 MOL     -0.144352
    133 C47        -6.8150   -0.9910    3.6900 ca        1 MOL      0.146424
    134 O20        -6.6490   -2.0190    4.5010 oh        1 MOL     -0.382806
    135 H56        -5.4220    0.3290   -0.5370 hn        1 MOL      0.236461
    136 H57        -6.7130    2.8750   -1.0780 h1        1 MOL      0.018377
    137 H58        -8.1680    2.3270    0.5210 hc        1 MOL      0.111214
    138 H59        -7.0110    3.2580    1.4950 hc        1 MOL      0.111214
    139 H60        -9.0080    0.4800    1.5730 ha        1 MOL      0.139419
    140 H61        -5.0710    1.7510    2.5570 ha        1 MOL      0.139419
    141 H62        -8.6930   -1.6140    2.9640 ha        1 MOL      0.140625
    142 H63        -4.8000   -0.3170    4.0580 ha        1 MOL      0.140625
    143 H64        -7.5100   -2.4430    4.5510 ho        1 MOL      0.297708
    144 N13        -4.8640    4.2010    0.0930 n         1 MOL     -0.590597
    145 C48        -3.7790    5.0630    0.5470 c3        1 MOL      0.279533
    146 C49        -2.5260    5.1820   -0.3440 c         1 MOL      0.377230
    147 O21        -1.9900    6.2710   -0.4520 o         1 MOL     -0.534017
    148 C50        -3.4900    4.9470    1.9800 c3        1 MOL     -0.107215
    149 C51        -3.0390    6.2450    2.7420 c3        1 MOL     -0.465308
    150 C52        -2.7930    6.0090    4.1970 c         1 MOL      0.770090
    151 O22        -3.7690    6.3440    4.9570 o         1 MOL     -0.738236
    152 O23        -1.6820    5.6310    4.6980 o         1 MOL     -0.738236
    153 H65        -5.7690    4.6240   -0.0610 hn        1 MOL      0.290823
    154 H66        -4.1290    6.0910    0.4060 h1        1 MOL      0.027917
    155 H67        -2.7720    4.1360    2.1350 hc        1 MOL      0.100281
    156 H68        -4.3900    4.5200    2.4350 hc        1 MOL      0.100281
    157 H69        -3.7720    7.0470    2.6030 hc        1 MOL      0.111422
    158 H70        -2.0730    6.5680    2.3300 hc        1 MOL      0.111422
    159 N14        -2.1180    4.0960   -1.0270 n         1 MOL     -0.133964
    160 C53        -0.9370    4.1370   -1.9960 c3        1 MOL     -0.296748
    161 C54        -1.2310    4.9980   -3.2460 c         1 MOL      0.552956
    162 O24        -0.3540    5.3740   -3.9660 o         1 MOL     -0.527616
    163 C55        -0.4410    2.7290   -2.3260 c3        1 MOL      0.280117
    164 C56        -0.1920    1.7560   -1.2160 c3        1 MOL      0.300896
    165 C57         0.6790    2.4670   -0.0730 c         1 MOL      0.335403
    166 O25         0.1490    3.2890    0.6410 o         1 MOL     -0.544153
    167 O26         1.7930    2.0250    0.2390 o         1 MOL     -0.544153
    168 H71        -2.5030    3.2060   -0.7640 hn        1 MOL      0.121589
    169 H72        -0.2130    4.6350   -1.3510 h1        1 MOL      0.202009
    170 H73         0.4110    2.6560   -3.0090 hc        1 MOL     -0.106797
    171 H74        -1.2750    2.2840   -2.8660 hc        1 MOL     -0.106797
    172 H75         0.2460    0.8340   -1.5950 hc        1 MOL     -0.069781
    173 H76        -1.1020    1.2930   -0.8380 hc        1 MOL     -0.069781
    174 N15        -2.5420    5.2400   -3.4310 n         1 MOL     -0.182390
    175 C58        -3.1310    6.1150   -4.4530 c3        1 MOL     -0.372302
    176 H77        -2.9840    5.6710   -5.4390 h1        1 MOL      0.127326
    177 H78        -4.1970    6.2310   -4.2630 h1        1 MOL      0.127326
    178 H79        -2.6460    7.0910   -4.4200 h1        1 MOL      0.127326
    179 H80        -3.2340    4.8970   -2.7800 hn        1 MOL      0.167808
    180 Ca1         4.0340    1.7020    1.4180 Ca        1 MOL      1.790672
    181 O27         5.9980    0.4530    2.8410 oh        1 MOL     -0.923041
    182 H81         6.2330    0.4090    3.7640 ho        1 MOL      0.441763
    183 H82         6.8380    0.4050    2.3780 ho        1 MOL      0.441763
    184 O28         3.1490    3.9850    2.6980 oh        1 MOL     -0.923041
    185 H83         2.2820    4.2510    2.9980 ho        1 MOL      0.441763
    186 H84         3.5150    4.7630    2.2820 ho        1 MOL      0.441763
@<TRIPOS>BOND
     1    1    2 1   
     2    1    4 1   
     3    1    5 1   
     4    1    6 1   
     5    2    3 2   
     6    2    7 1   
     7    7    8 1   
     8    7   15 1   
     9    8    9 1   
    10    8   11 1   
    11    8   16 1   
    12    9   10 2   
    13    9   19 1   
    14   11   12 1   
    15   11   17 1   
    16   11   18 1   
    17   12   13 1   
    18   12   14 1   
    19   19   20 1   
    20   19   27 1   
    21   20   21 1   
    22   20   23 1   
    23   20   28 1   
    24   21   22 2   
    25   21   38 1   
    26   23   24 1   
    27   23   25 1   
    28   23   29 1   
    29   24   26 1   
    30   24   30 1   
    31   24   31 1   
    32   25   32 1   
    33   25   33 1   
    34   25   34 1   
    35   26   35 1   
    36   26   36 1   
    37   26   37 1   
    38   38   39 1   
    39   38   46 1   
    40   39   40 1   
    41   39   42 1   
    42   39   47 1   
    43   40   41 2   
    44   40   50 1   
    45   42   43 1   
    46   42   48 1   
    47   42   49 1   
    48   43   44 1   
    49   43   45 1   
    50   50   51 1   
    51   50   54 1   
    52   51   52 1   
    53   51   55 1   
    54   51   56 1   
    55   52   53 2   
    56   52   57 1   
    57   57   58 1   
    58   57   65 1   
    59   58   59 1   
    60   58   61 1   
    61   58   66 1   
    62   59   60 2   
    63   59   69 1   
    64   61   62 1   
    65   61   67 1   
    66   61   68 1   
    67   62   63 1   
    68   62   64 1   
    69   69   70 1   
    70   69   73 1   
    71   70   71 1   
    72   70   74 1   
    73   70   75 1   
    74   71   72 2   
    75   71   76 1   
    76   76   77 1   
    77   76   85 1   
    78   77   78 1   
    79   77   80 1   
    80   77   86 1   
    81   78   79 2   
    82   78   93 1   
    83   80   81 1   
    84   80   87 1   
    85   80   88 1   
    86   81   82 1   
    87   81   89 1   
    88   81   90 1   
    89   82   83 1   
    90   82   84 2   
    91   83   91 1   
    92   83   92 1   
    93   93   94 1   
    94   93  100 1   
    95   94   95 1   
    96   94   97 1   
    97   94  101 1   
    98   95   96 2   
    99   95  109 1   
   100   97   98 1   
   101   97   99 1   
   102   97  102 1   
   103   98  103 1   
   104   98  104 1   
   105   98  105 1   
   106   99  106 1   
   107   99  107 1   
   108   99  108 1   
   109  109  110 1   
   110  109  117 1   
   111  110  111 1   
   112  110  113 1   
   113  110  118 1   
   114  111  112 2   
   115  111  123 1   
   116  113  114 1   
   117  113  119 1   
   118  113  120 1   
   119  114  115 1   
   120  114  116 2   
   121  115  121 1   
   122  115  122 1   
   123  123  124 1   
   124  123  135 1   
   125  124  125 1   
   126  124  127 1   
   127  124  136 1   
   128  125  126 2   
   129  125  144 1   
   130  127  128 1   
   131  127  137 1   
   132  127  138 1   
   133  128  129 ar  
   134  128  130 ar  
   135  129  131 ar  
   136  129  139 1   
   137  130  132 ar  
   138  130  140 1   
   139  131  133 ar  
   140  131  141 1   
   141  132  133 ar  
   142  132  142 1   
   143  133  134 1   
   144  134  143 1   
   145  144  145 1   
   146  144  153 1   
   147  145  146 1   
   148  145  148 1   
   149  145  154 1   
   150  146  147 2   
   151  146  159 1   
   152  148  149 1   
   153  148  155 1   
   154  148  156 1   
   155  149  150 1   
   156  149  157 1   
   157  149  158 1   
   158  150  151 1   
   159  150  152 1   
   160  159  160 1   
   161  159  168 1   
   162  160  161 1   
   163  160  163 1   
   164  160  169 1   
   165  161  162 2   
   166  161  174 1   
   167  163  164 1   
   168  163  170 1   
   169  163  171 1   
   170  164  165 1   
   171  164  172 1   
   172  164  173 1   
   173  165  166 1   
   174  165  167 1   
   175  174  175 1   
   176  174  179 1   
   177  175  176 1   
   178  175  177 1   
   179  175  178 1   
   180  181  182 1   
   181  181  183 1   
   182  184  185 1   
   183  184  186 1   
@<TRIPOS>SUBSTRUCTURE
     1 MOL         1 TEMP              0 ****  ****    0 ROOT
