@<TRIPOS>MOLECULE
MOL
  186   183     1     0     0
SMALL
resp


@<TRIPOS>ATOM
      1 C1          8.9930    0.1440    2.3390 c3        1 MOL     -0.434501
      2 C2          7.9370   -0.0060    1.2500 c         1 MOL      0.689776
      3 O1          6.8890   -0.5440    1.5280 o         1 MOL     -0.658357
      4 H1          8.7610    1.0150    2.9520 hc        1 MOL      0.110376
      5 H2          9.0010   -0.7480    2.9650 hc        1 MOL      0.110376
      6 H3          9.9730    0.2740    1.8810 hc        1 MOL      0.110376
      7 N1          8.3530    0.3700    0.0190 n         1 MOL     -0.505546
      8 C3          7.4940    0.1700   -1.1480 c3        1 MOL     -0.101125
      9 C4          7.1990   -1.2920   -1.4840 c         1 MOL      0.565852
     10 O2          7.4310   -1.6500   -2.5880 o         1 MOL     -0.480860
     11 C5          7.9260    0.9760   -2.2650 c3        1 MOL     -0.274620
     12 C6          9.3790    0.7440   -2.7030 c         1 MOL      0.749800
     13 O3          9.5720    0.9230   -3.9220 o         1 MOL     -0.627478
     14 O4         10.3140    0.4390   -1.9670 o         1 MOL     -0.627478
     15 H4          9.2870    0.7010   -0.1810 hn        1 MOL      0.290468
     16 H5          6.4650    0.4410   -0.9010 h1        1 MOL      0.199239
     17 H6          7.9220    2.0430   -2.0050 hc        1 MOL      0.105229
     18 H7          7.2360    0.8290   -3.0870 hc        1 MOL      0.105229
     19 N2          6.5180   -2.0500   -0.6080 n         1 MOL     -0.484387
     20 C7          6.0370   -3.3850   -0.8120 c3        1 MOL      0.192450
     21 C8          4.6470   -3.4640   -1.4750 c         1 MOL      0.573039
     22 O5          4.4490   -4.2250   -2.3560 o         1 MOL     -0.553047
     23 C9          6.0690   -4.2620    0.5020 c3        1 MOL     -0.109024
     24 C10         7.5160   -4.7470    0.7710 c3        1 MOL     -0.074425
     25 C11         7.6370   -5.8940    1.8100 c3        1 MOL      0.096738
     26 C12         9.0300   -6.3430    2.1590 c3        1 MOL      0.023457
     27 N3          9.1060   -7.5260    3.0030 n4        1 MOL     -0.238900
     28 H8          6.3490   -1.6040    0.2840 hn        1 MOL      0.349498
     29 H9          6.7060   -3.8550   -1.5400 h1        1 MOL      0.020693
     30 H10         5.4530   -5.1380    0.2760 hc        1 MOL      0.023962
     31 H11         5.7300   -3.6860    1.3660 hc        1 MOL      0.023962
     32 H12         8.0430   -3.8600    1.1220 hc        1 MOL      0.043952
     33 H13         7.9500   -4.9700   -0.2060 hc        1 MOL      0.043952
     34 H14         7.1390   -6.8180    1.5280 hc        1 MOL     -0.000456
     35 H15         7.1860   -5.6170    2.7630 hc        1 MOL     -0.000456
     36 H16         9.3830   -5.4530    2.6850 hx        1 MOL      0.060453
     37 H17         9.5450   -6.5290    1.2210 hx        1 MOL      0.060453
     38 H18         8.6480   -7.3280    3.8830 hn        1 MOL      0.276433
     39 H19         8.6380   -8.3520    2.6660 hn        1 MOL      0.276433
     40 H20        10.1140   -7.6210    3.0680 hn        1 MOL      0.276433
     41 N4          3.6480   -2.6480   -0.9980 n         1 MOL     -0.364222
     42 C13         3.6310   -1.8120    0.2440 c3        1 MOL     -0.155501
     43 C14         3.5640   -0.2830   -0.0160 c         1 MOL      0.272289
     44 O6          3.3110    0.1380   -1.1520 o         1 MOL     -0.475352
     45 C15         2.4050   -2.2580    1.0970 c3        1 MOL     -0.362913
     46 C16         1.1240   -2.4210    0.3050 c         1 MOL      0.878933
     47 O7          0.8600   -1.7490   -0.7330 o         1 MOL     -0.749496
     48 O8          0.2900   -3.1830    0.7970 o         1 MOL     -0.749496
     49 H21         2.8810   -2.5340   -1.6550 hn        1 MOL      0.299157
     50 H22         4.5610   -1.9490    0.8040 h1        1 MOL      0.146703
     51 H23         2.1760   -1.5250    1.8710 hc        1 MOL      0.097981
     52 H24         2.6470   -3.2420    1.4960 hc        1 MOL      0.097981
     53 N5          3.9380    0.5400    0.9150 n         1 MOL     -0.213386
     54 C17         4.1370    1.9940    0.7060 c3        1 MOL      0.009800
     55 C18         2.9720    2.7690    0.0990 c         1 MOL      0.619611
     56 O9          1.8400    2.2310    0.1540 o         1 MOL     -0.536010
     57 H25         4.0320    0.1020    1.8210 hn        1 MOL      0.259615
     58 H26         4.9230    2.0110   -0.0390 h1        1 MOL      0.018639
     59 H27         4.4920    2.4860    1.6140 h1        1 MOL      0.018639
     60 N6          3.2740    3.9320   -0.4130 n         1 MOL     -0.430820
     61 C19         2.2630    4.7630   -1.0160 c3        1 MOL      0.061854
     62 C20         2.5250    6.2570   -0.5550 c         1 MOL      0.520205
     63 O10         3.6200    6.7000   -0.2890 o         1 MOL     -0.538662
     64 C21         2.1900    4.6290   -2.5290 c3        1 MOL     -0.110029
     65 C22         1.9560    3.2010   -2.9730 c         1 MOL      0.584881
     66 O11         2.6970    2.7950   -3.8800 o         1 MOL     -0.614636
     67 O12         0.9460    2.6310   -2.5220 o         1 MOL     -0.614636
     68 H28         4.2100    4.2850   -0.3360 hn        1 MOL      0.287008
     69 H29         1.3260    4.4840   -0.5290 h1        1 MOL      0.026554
     70 H30         3.0640    5.1180   -2.9490 hc        1 MOL      0.052525
     71 H31         1.4310    5.2920   -2.9500 hc        1 MOL      0.052525
     72 N7          1.5090    7.1500   -0.5440 n         1 MOL     -0.486092
     73 C23         0.0960    6.7800   -0.8210 c3        1 MOL     -0.022490
     74 C24        -0.6350    6.0620    0.3090 c         1 MOL      0.699735
     75 O13        -0.4570    6.3010    1.4860 o         1 MOL     -0.595916
     76 H32         1.7370    8.0990   -0.2930 hn        1 MOL      0.326907
     77 H33         0.0940    6.1380   -1.7000 h1        1 MOL      0.056442
     78 H34        -0.4270    7.6850   -1.1390 h1        1 MOL      0.056442
     79 N8         -1.5260    5.1720   -0.0000 n         1 MOL     -0.661858
     80 C25        -2.3060    4.3680    0.9150 c3        1 MOL      0.109827
     81 C26        -1.5070    3.1340    1.2360 c         1 MOL      0.842244
     82 O14        -0.8390    2.5020    0.4780 o         1 MOL     -0.610775
     83 C27        -3.7620    4.1410    0.4730 c3        1 MOL      0.624441
     84 C28        -4.5650    5.4130    0.2430 c3        1 MOL     -0.350394
     85 O15        -4.4270    3.4480    1.4650 oh        1 MOL     -0.651975
     86 H35        -1.7320    5.0330   -0.9790 hn        1 MOL      0.284758
     87 H36        -2.4080    4.9750    1.8110 h1        1 MOL      0.035392
     88 H37        -3.7820    3.6470   -0.4920 h1        1 MOL     -0.092680
     89 H38        -4.2770    2.5400    1.1860 ho        1 MOL      0.335322
     90 H39        -4.6320    5.9010    1.2200 hc        1 MOL      0.083006
     91 H40        -4.0940    6.1480   -0.4130 hc        1 MOL      0.083006
     92 H41        -5.5500    5.0350   -0.0490 hc        1 MOL      0.083006
     93 N9         -1.5960    2.7550    2.4890 n         1 MOL     -0.886898
     94 C29        -0.9430    1.6680    3.1050 c3        1 MOL      0.211551
     95 C30        -1.1940    0.3120    2.3790 c         1 MOL      0.662524
     96 O16        -0.4820   -0.0470    1.4040 o         1 MOL     -0.552986
     97 C31         0.5630    1.8650    3.5780 c3        1 MOL      0.182217
     98 C32         1.0150    3.3250    3.8160 c3        1 MOL      0.013797
     99 C33         0.8870    0.8860    4.7130 c3        1 MOL     -0.294976
    100 C34         2.3080    3.6520    4.4960 c3        1 MOL     -0.336955
    101 H42        -2.2520    3.2480    3.0870 hn        1 MOL      0.345899
    102 H43        -1.3820    1.5050    4.0930 h1        1 MOL     -0.016516
    103 H44         1.1040    1.5320    2.6880 hc        1 MOL     -0.059226
    104 H45         0.2990    3.8680    4.4400 hc        1 MOL      0.039304
    105 H46         1.0560    3.7650    2.8180 hc        1 MOL      0.039304
    106 H47         1.8440    1.1950    5.1230 hc        1 MOL      0.062649
    107 H48         0.1830    0.8720    5.5590 hc        1 MOL      0.062649
    108 H49         0.8670   -0.1000    4.2530 hc        1 MOL      0.062649
    109 H50         2.5950    4.6780    4.2270 hc        1 MOL      0.091318
    110 H51         2.2140    3.6950    5.5820 hc        1 MOL      0.091318
    111 H52         3.1200    3.0470    4.0890 hc        1 MOL      0.091318
    112 N10        -2.2300   -0.3330    2.7530 n         1 MOL     -0.467951
    113 C35        -2.5850   -1.6470    2.1980 c3        1 MOL     -0.323068
    114 C36        -4.0630   -1.7510    1.8540 c         1 MOL      0.645834
    115 O17        -4.4460   -2.6600    1.1260 o         1 MOL     -0.581846
    116 C37        -2.1440   -2.7530    3.2270 c3        1 MOL      0.318647
    117 C38        -2.6450   -2.5440    4.6710 c3        1 MOL     -0.110002
    118 O18        -0.7670   -2.8660    3.2630 oh        1 MOL     -0.598532
    119 H53        -2.8730    0.1270    3.3640 hn        1 MOL      0.287181
    120 H54        -2.0060   -1.7830    1.2840 h1        1 MOL      0.216379
    121 H55        -2.5520   -3.7110    2.8940 h1        1 MOL      0.017539
    122 H56        -0.4880   -2.9430    2.3420 ho        1 MOL      0.419105
    123 H57        -2.5210   -3.4150    5.3090 hc        1 MOL      0.020962
    124 H58        -2.1350   -1.7090    5.1510 hc        1 MOL      0.020962
    125 H59        -3.6930   -2.2540    4.6990 hc        1 MOL      0.020962
    126 N11        -4.9780   -1.0050    2.5040 n         1 MOL     -0.272833
    127 C39        -6.4240   -1.0770    2.2280 c3        1 MOL     -0.148948
    128 C40        -6.8210   -0.9670    0.7630 c         1 MOL      0.232563
    129 O19        -6.4110   -0.0010    0.1330 o         1 MOL     -0.401460
    130 C41        -7.0140    0.2030    2.9380 c3        1 MOL      0.440831
    131 C42        -8.5770    0.3280    2.8190 c3        1 MOL     -0.558054
    132 O20        -6.7310    0.1570    4.2630 oh        1 MOL     -0.638800
    133 H60        -4.6320   -0.3320    3.1730 hn        1 MOL      0.244674
    134 H61        -6.8780   -1.9500    2.7040 h1        1 MOL      0.124481
    135 H62        -6.5450    1.1020    2.5470 h1        1 MOL     -0.000053
    136 H63        -7.1400    0.9080    4.7000 ho        1 MOL      0.409912
    137 H64        -8.9060    1.1520    3.4580 hc        1 MOL      0.150206
    138 H65        -8.9240    0.5570    1.8160 hc        1 MOL      0.150206
    139 H66        -9.0230   -0.6400    3.0110 hc        1 MOL      0.150206
    140 N12        -7.3590   -2.0770    0.1560 n         1 MOL     -0.150234
    141 C43        -7.4210   -2.3470   -1.2820 c3        1 MOL      0.297218
    142 C44        -6.2510   -1.7990   -2.1790 c         1 MOL      0.270771
    143 O21        -6.4700   -0.9370   -3.0430 o         1 MOL     -0.490022
    144 C45        -8.7700   -1.9290   -1.8460 c3        1 MOL     -0.254274
    145 C46       -10.0720   -2.2000   -1.0320 c3        1 MOL      0.069451
    146 C47       -11.3340   -1.8460   -1.9350 c3        1 MOL      0.073334
    147 C48       -12.6780   -2.3120   -1.4470 c3        1 MOL      0.035898
    148 N13       -13.2290   -3.4790   -2.1300 n4        1 MOL     -0.264498
    149 H67        -7.7180   -2.8370    0.7140 hn        1 MOL      0.169755
    150 H68        -7.2660   -3.4240   -1.3430 h1        1 MOL     -0.036123
    151 H69        -8.9550   -2.2020   -2.8810 hc        1 MOL      0.087157
    152 H70        -8.7750   -0.8350   -1.7920 hc        1 MOL      0.087157
    153 H71       -10.0680   -1.6520   -0.0910 hc        1 MOL     -0.038814
    154 H72       -10.0720   -3.2790   -0.8720 hc        1 MOL     -0.038814
    155 H73       -11.1780   -2.3790   -2.8810 hc        1 MOL      0.020316
    156 H74       -11.3510   -0.7820   -2.1710 hc        1 MOL      0.020316
    157 H75       -13.4000   -1.5070   -1.4210 hx        1 MOL      0.060927
    158 H76       -12.5830   -2.6130   -0.3990 hx        1 MOL      0.060927
    159 H77       -12.6260   -4.2700   -1.9880 hn        1 MOL      0.228455
    160 H78       -14.1400   -3.7270   -1.7810 hn        1 MOL      0.228455
    161 H79       -13.3370   -3.4310   -3.1280 hn        1 MOL      0.228455
    162 N14        -5.0430   -2.2290   -1.8210 n         1 MOL     -0.257885
    163 C49        -3.7590   -1.6990   -2.4150 c3        1 MOL      0.086842
    164 C50        -2.5780   -2.0000   -1.4790 c         1 MOL      0.150759
    165 O22        -1.9480   -1.0420   -1.0240 o         1 MOL     -0.396020
    166 C51        -3.4930   -2.2240   -3.8790 c3        1 MOL     -0.109616
    167 C52        -2.0690   -1.9300   -4.4400 c3        1 MOL     -0.182623
    168 C53        -1.6250   -0.4710   -4.1220 c         1 MOL      0.840378
    169 O23        -2.2530    0.5340   -4.4960 o         1 MOL     -0.746457
    170 O24        -0.6080   -0.2920   -3.4320 o         1 MOL     -0.746457
    171 H80        -4.9840   -2.8510   -1.0350 hn        1 MOL      0.239977
    172 H81        -3.8280   -0.6120   -2.4470 h1        1 MOL      0.154604
    173 H82        -4.1410   -1.7510   -4.6130 hc        1 MOL      0.051097
    174 H83        -3.7090   -3.2870   -3.7680 hc        1 MOL      0.051097
    175 H84        -2.2300   -2.0940   -5.5010 hc        1 MOL      0.039549
    176 H85        -1.2750   -2.5290   -3.9900 hc        1 MOL      0.039549
    177 N15        -2.1180   -3.1880   -1.1840 n         1 MOL     -0.089027
    178 C54        -2.6220   -4.5040   -1.5460 c3        1 MOL     -0.070921
    179 H86        -2.7370   -5.1090   -0.6470 h1        1 MOL      0.037614
    180 H87        -3.5870   -4.4010   -2.0410 h1        1 MOL      0.037614
    181 H88        -1.9180   -4.9900   -2.2220 h1        1 MOL      0.037614
    182 H89        -1.2750   -3.2400   -0.6330 hn        1 MOL      0.264077
    183 Ca1         0.1030    0.6160   -1.1330 Ca        1 MOL      1.735228
    184 O25        -2.2490    1.6990   -1.8670 oh        1 MOL     -1.138252
    185 H90        -2.2800    1.4480   -2.7850 ho        1 MOL      0.490671
    186 H91        -2.9250    2.3730   -1.7770 ho        1 MOL      0.490671
@<TRIPOS>BOND
     1    1    2 1   
     2    1    4 1   
     3    1    5 1   
     4    1    6 1   
     5    2    3 2   
     6    2    7 1   
     7    7    8 1   
     8    7   15 1   
     9    8    9 1   
    10    8   11 1   
    11    8   16 1   
    12    9   10 2   
    13    9   19 1   
    14   11   12 1   
    15   11   17 1   
    16   11   18 1   
    17   12   13 1   
    18   12   14 1   
    19   19   20 1   
    20   19   28 1   
    21   20   21 1   
    22   20   23 1   
    23   20   29 1   
    24   21   22 2   
    25   21   41 1   
    26   23   24 1   
    27   23   30 1   
    28   23   31 1   
    29   24   25 1   
    30   24   32 1   
    31   24   33 1   
    32   25   26 1   
    33   25   34 1   
    34   25   35 1   
    35   26   27 1   
    36   26   36 1   
    37   26   37 1   
    38   27   38 1   
    39   27   39 1   
    40   27   40 1   
    41   41   42 1   
    42   41   49 1   
    43   42   43 1   
    44   42   45 1   
    45   42   50 1   
    46   43   44 2   
    47   43   53 1   
    48   45   46 1   
    49   45   51 1   
    50   45   52 1   
    51   46   47 1   
    52   46   48 1   
    53   53   54 1   
    54   53   57 1   
    55   54   55 1   
    56   54   58 1   
    57   54   59 1   
    58   55   56 2   
    59   55   60 1   
    60   60   61 1   
    61   60   68 1   
    62   61   62 1   
    63   61   64 1   
    64   61   69 1   
    65   62   63 2   
    66   62   72 1   
    67   64   65 1   
    68   64   70 1   
    69   64   71 1   
    70   65   66 1   
    71   65   67 1   
    72   72   73 1   
    73   72   76 1   
    74   73   74 1   
    75   73   77 1   
    76   73   78 1   
    77   74   75 2   
    78   74   79 1   
    79   79   80 1   
    80   79   86 1   
    81   80   81 1   
    82   80   83 1   
    83   80   87 1   
    84   81   82 2   
    85   81   93 1   
    86   83   84 1   
    87   83   85 1   
    88   83   88 1   
    89   84   90 1   
    90   84   91 1   
    91   84   92 1   
    92   85   89 1   
    93   93   94 1   
    94   93  101 1   
    95   94   95 1   
    96   94   97 1   
    97   94  102 1   
    98   95   96 2   
    99   95  112 1   
   100   97   98 1   
   101   97   99 1   
   102   97  103 1   
   103   98  100 1   
   104   98  104 1   
   105   98  105 1   
   106   99  106 1   
   107   99  107 1   
   108   99  108 1   
   109  100  109 1   
   110  100  110 1   
   111  100  111 1   
   112  112  113 1   
   113  112  119 1   
   114  113  114 1   
   115  113  116 1   
   116  113  120 1   
   117  114  115 2   
   118  114  126 1   
   119  116  117 1   
   120  116  118 1   
   121  116  121 1   
   122  117  123 1   
   123  117  124 1   
   124  117  125 1   
   125  118  122 1   
   126  126  127 1   
   127  126  133 1   
   128  127  128 1   
   129  127  130 1   
   130  127  134 1   
   131  128  129 2   
   132  128  140 1   
   133  130  131 1   
   134  130  132 1   
   135  130  135 1   
   136  131  137 1   
   137  131  138 1   
   138  131  139 1   
   139  132  136 1   
   140  140  141 1   
   141  140  149 1   
   142  141  142 1   
   143  141  144 1   
   144  141  150 1   
   145  142  143 2   
   146  142  162 1   
   147  144  145 1   
   148  144  151 1   
   149  144  152 1   
   150  145  146 1   
   151  145  153 1   
   152  145  154 1   
   153  146  147 1   
   154  146  155 1   
   155  146  156 1   
   156  147  148 1   
   157  147  157 1   
   158  147  158 1   
   159  148  159 1   
   160  148  160 1   
   161  148  161 1   
   162  162  163 1   
   163  162  171 1   
   164  163  164 1   
   165  163  166 1   
   166  163  172 1   
   167  164  165 2   
   168  164  177 1   
   169  166  167 1   
   170  166  173 1   
   171  166  174 1   
   172  167  168 1   
   173  167  175 1   
   174  167  176 1   
   175  168  169 1   
   176  168  170 1   
   177  177  178 1   
   178  177  182 1   
   179  178  179 1   
   180  178  180 1   
   181  178  181 1   
   182  184  185 1   
   183  184  186 1   
@<TRIPOS>SUBSTRUCTURE
     1 MOL         1 TEMP              0 ****  ****    0 ROOT
