@<TRIPOS>MOLECULE
MOL
  178   175     1     0     0
SMALL
resp


@<TRIPOS>ATOM
      1 C1          4.9030   -2.2680    2.2790 c3        1 MOL     -0.268696
      2 C2          6.1700   -1.4510    2.1690 c         1 MOL      0.595604
      3 O1          6.0480   -0.2360    1.9890 o         1 MOL     -0.593797
      4 H1          4.7870   -2.8780    1.3840 hc        1 MOL      0.082855
      5 H2          4.9640   -2.9160    3.1540 hc        1 MOL      0.082855
      6 H3          4.0470   -1.6010    2.3790 hc        1 MOL      0.082855
      7 N1          7.4260   -2.0000    2.2180 n         1 MOL     -0.525532
      8 C3          8.6850   -1.2480    2.1540 c3        1 MOL      0.287995
      9 C4          8.9890   -0.7130    0.7400 c         1 MOL      0.510847
     10 O2          9.4550   -1.5050   -0.1160 o         1 MOL     -0.550572
     11 C5          9.6660   -2.2550    2.7710 c3        1 MOL     -0.241698
     12 C6         11.0100   -1.7780    3.2480 c         1 MOL      0.761190
     13 O3         11.6720   -2.5920    3.9430 o         1 MOL     -0.752536
     14 O4         11.2340   -0.5640    3.0650 o         1 MOL     -0.752536
     15 H4          7.5370   -2.9980    2.0900 hn        1 MOL      0.266750
     16 H5          8.6070   -0.3810    2.8080 h1        1 MOL      0.016168
     17 H6          9.7900   -3.0300    2.0080 hc        1 MOL      0.019492
     18 H7          9.1350   -2.5970    3.6530 hc        1 MOL      0.019492
     19 N2          8.6230    0.5350    0.5670 n         1 MOL     -0.510922
     20 C7          8.6940    1.3230   -0.7620 c3        1 MOL      0.240142
     21 C8          7.3820    1.2220   -1.5260 c         1 MOL      0.638944
     22 O5          7.3930    1.3750   -2.7020 o         1 MOL     -0.585157
     23 C9          9.0380    2.8150   -0.4440 c3        1 MOL     -0.197686
     24 H8          8.2250    0.9890    1.3830 hn        1 MOL      0.270524
     25 H9          9.4800    0.9230   -1.3990 h1        1 MOL      0.039236
     26 H10         8.1990    3.2260    0.1130 hc        1 MOL      0.048251
     27 H11         9.9360    2.9010    0.1750 hc        1 MOL      0.048251
     28 H12         9.1720    3.4490   -1.3160 hc        1 MOL      0.048251
     29 N3          6.2780    0.8730   -0.8310 n         1 MOL     -0.783422
     30 C10         5.0460    0.2270   -1.4300 c3        1 MOL      0.450583
     31 C11         4.3550    1.0890   -2.4710 c         1 MOL      0.514557
     32 O6          3.7230    0.6400   -3.4150 o         1 MOL     -0.509205
     33 C12         5.2670   -1.2430   -1.7760 c3        1 MOL      0.106496
     34 C13         3.9410   -2.0990   -1.8760 c         1 MOL      0.666150
     35 O7          2.8440   -1.6930   -1.4820 o         1 MOL     -0.795280
     36 O8          4.0080   -3.2910   -2.3130 o         1 MOL     -0.795280
     37 H13         6.3910    0.9320    0.1690 hn        1 MOL      0.333561
     38 H14         4.3650    0.2070   -0.5790 h1        1 MOL     -0.004253
     39 H15         6.0110   -1.7170   -1.1400 hc        1 MOL     -0.049390
     40 H16         5.6730   -1.3530   -2.7780 hc        1 MOL     -0.049390
     41 N4          4.6470    2.4240   -2.4100 n         1 MOL     -0.477809
     42 C14         4.3340    3.4670   -3.3380 c3        1 MOL      0.043869
     43 C15         2.8480    3.9890   -3.3690 c         1 MOL      0.293910
     44 O9          2.5930    5.0150   -4.1250 o         1 MOL     -0.564811
     45 H17         5.2540    2.7390   -1.6690 hn        1 MOL      0.257768
     46 H18         4.6170    3.1600   -4.3400 h1        1 MOL      0.084694
     47 H19         5.0270    4.3010   -3.2450 h1        1 MOL      0.084694
     48 N5          1.8830    3.3090   -2.7430 n         1 MOL     -0.102686
     49 C16         0.4420    3.7440   -2.6680 c3        1 MOL     -0.052771
     50 C17         0.3310    4.7220   -1.5170 c         1 MOL      0.524307
     51 O10         0.5240    4.3850   -0.3400 o         1 MOL     -0.519658
     52 C18        -0.4970    2.5310   -2.6480 c3        1 MOL     -0.420572
     53 C19        -1.8960    2.8900   -2.7540 c         1 MOL      0.681814
     54 N6         -2.6640    2.6290   -1.6940 n         1 MOL     -0.673960
     55 O11        -2.3820    3.4350   -3.7260 o         1 MOL     -0.580342
     56 H20         2.1000    2.6330   -2.0280 hn        1 MOL      0.156112
     57 H21         0.3070    4.2450   -3.6310 h1        1 MOL      0.109276
     58 H22        -0.2500    1.9170   -1.7780 hc        1 MOL      0.180990
     59 H23        -0.2720    1.8900   -3.4940 hc        1 MOL      0.180990
     60 H24        -2.2160    2.2370   -0.8760 hn        1 MOL      0.311971
     61 H25        -3.6130    2.9680   -1.6840 hn        1 MOL      0.311971
     62 N7         -0.2000    5.9040   -1.8630 n         1 MOL     -0.388909
     63 C20        -0.7070    6.7850   -0.8360 c3        1 MOL      0.048068
     64 C21        -1.9270    6.1690   -0.2220 c         1 MOL      0.403809
     65 O12        -2.7840    5.6060   -0.9280 o         1 MOL     -0.458951
     66 H26        -0.2820    6.1250   -2.8440 hn        1 MOL      0.297872
     67 H27        -0.8940    7.7650   -1.2760 h1        1 MOL      0.046601
     68 H28         0.0030    7.0490   -0.0460 h1        1 MOL      0.046601
     69 N8         -2.1260    6.3030    1.0580 n         1 MOL     -0.269355
     70 C22        -3.2860    5.8420    1.8760 c3        1 MOL     -0.256110
     71 C23        -3.1970    4.4040    2.4480 c         1 MOL      0.399157
     72 O13        -4.1490    3.8840    3.0310 o         1 MOL     -0.533640
     73 C24        -3.6220    6.8750    2.9350 c3        1 MOL      0.468439
     74 C25        -2.6230    6.9610    4.0860 c3        1 MOL     -0.375402
     75 O14        -3.7010    8.1250    2.3400 oh        1 MOL     -0.587967
     76 H29        -1.4820    6.8500    1.6120 hn        1 MOL      0.222429
     77 H30        -4.1450    5.8060    1.2030 h1        1 MOL      0.136096
     78 H31        -4.6240    6.6900    3.3170 h1        1 MOL      0.043344
     79 H32        -2.8590    8.1800    1.8810 ho        1 MOL      0.326417
     80 H33        -1.6240    7.2000    3.7220 hc        1 MOL      0.091945
     81 H34        -2.9170    7.7360    4.7970 hc        1 MOL      0.091945
     82 H35        -2.4710    6.0030    4.5740 hc        1 MOL      0.091945
     83 N9         -2.0530    3.7430    2.2420 n         1 MOL     -0.053961
     84 C26        -1.6700    2.4000    2.7040 c3        1 MOL     -0.141432
     85 C27        -1.5430    1.6140    1.4160 c         1 MOL      0.396591
     86 O15        -0.6450    1.8050    0.5440 o         1 MOL     -0.379179
     87 C28        -0.3410    2.3680    3.5020 c3        1 MOL      0.170191
     88 C29        -0.3110    3.5500    4.5650 c3        1 MOL     -0.063754
     89 C30         0.0050    1.1050    4.2580 c3        1 MOL     -0.061810
     90 C31        -1.4300    3.4370    5.6220 c3        1 MOL     -0.240789
     91 H36        -1.4030    4.1450    1.5740 hn        1 MOL      0.143760
     92 H37        -2.4570    2.0470    3.3720 h1        1 MOL      0.111982
     93 H38         0.4700    2.5640    2.8050 hc        1 MOL     -0.008956
     94 H39        -0.3960    4.5410    4.1300 hc        1 MOL      0.020116
     95 H40         0.6480    3.3930    5.0580 hc        1 MOL      0.020116
     96 H41        -0.6210    0.9870    5.1420 hc        1 MOL      0.034778
     97 H42        -0.0540    0.2800    3.5440 hc        1 MOL      0.034778
     98 H43         1.0260    1.1320    4.6330 hc        1 MOL      0.034778
     99 H44        -2.4300    3.4150    5.2000 hc        1 MOL      0.058605
    100 H45        -1.2970    2.5600    6.2550 hc        1 MOL      0.058605
    101 H46        -1.3010    4.3080    6.2540 hc        1 MOL      0.058605
    102 N10        -2.3930    0.5910    1.3000 n         1 MOL     -0.573232
    103 C32        -2.2100   -0.4020    0.2460 c3        1 MOL      0.543125
    104 C33        -3.5090   -1.0260   -0.3790 c         1 MOL      0.405630
    105 O16        -3.5940   -2.1590   -0.8940 o         1 MOL     -0.480319
    106 C34        -1.3070   -1.4870    0.8450 c3        1 MOL     -0.381757
    107 C35        -0.3720   -2.2600   -0.0880 c         1 MOL      0.719189
    108 O17        -0.1070   -1.8030   -1.2510 o         1 MOL     -0.650012
    109 O18         0.2110   -3.2790    0.3180 o         1 MOL     -0.650012
    110 H47        -3.1000    0.5100    2.0160 hn        1 MOL      0.309287
    111 H48        -1.6450    0.0560   -0.5690 h1        1 MOL     -0.126890
    112 H49        -1.9800   -2.1980    1.3390 hc        1 MOL      0.053211
    113 H50        -0.6550   -0.9960    1.5640 hc        1 MOL      0.053211
    114 N11        -4.5820   -0.2700   -0.1440 n         1 MOL     -0.444996
    115 C36        -5.8730   -0.7170   -0.6250 c3        1 MOL      0.343883
    116 C37        -6.3830   -1.9030    0.1740 c         1 MOL      0.215023
    117 O19        -6.4090   -1.8140    1.3830 o         1 MOL     -0.495083
    118 C38        -6.9070    0.3590   -0.6440 c3        1 MOL     -0.272803
    119 C39        -6.4630    1.6710   -1.3310 ca        1 MOL      0.066258
    120 C40        -6.1810    2.7360   -0.4680 ca        1 MOL     -0.161460
    121 C41        -6.5250    1.8920   -2.7100 ca        1 MOL     -0.161460
    122 C42        -5.8620    3.9650   -1.0060 ca        1 MOL     -0.056633
    123 C43        -6.1420    3.1020   -3.2720 ca        1 MOL     -0.056633
    124 C44        -5.7870    4.1270   -2.4050 ca        1 MOL     -0.224529
    125 H51        -4.5160    0.5460    0.4460 hn        1 MOL      0.260848
    126 H52        -5.7330   -1.0570   -1.6520 h1        1 MOL     -0.003243
    127 H53        -7.2060    0.7050    0.3390 hc        1 MOL      0.101170
    128 H54        -7.7820    0.0030   -1.1920 hc        1 MOL      0.101170
    129 H55        -6.2250    2.6530    0.6100 ha        1 MOL      0.112116
    130 H56        -6.8500    1.0970   -3.3700 ha        1 MOL      0.112116
    131 H57        -5.5650    4.8060   -0.3920 ha        1 MOL      0.117277
    132 H58        -6.2390    3.2080   -4.3370 ha        1 MOL      0.117277
    133 H59        -5.3790    5.0290   -2.8440 ha        1 MOL      0.149266
    134 N12        -6.7800   -3.0650   -0.4490 n         1 MOL     -0.004906
    135 C45        -7.4010   -4.2260    0.2630 c3        1 MOL     -0.005429
    136 C46        -6.3040   -5.0510    0.9960 c         1 MOL      0.328766
    137 O20        -6.6270   -5.8600    1.8520 o         1 MOL     -0.513008
    138 C47        -8.0540   -5.0900   -0.8180 c3        1 MOL      0.000090
    139 C48        -7.3340   -4.7790   -2.1170 c3        1 MOL     -0.030323
    140 C49        -6.8660   -3.3140   -1.8790 c3        1 MOL     -0.193759
    141 H60        -8.1910   -4.0430    0.9850 h1        1 MOL      0.066647
    142 H61        -8.1700   -6.1360   -0.5360 hc        1 MOL      0.027663
    143 H62        -9.0770   -4.6930   -0.9060 hc        1 MOL      0.027663
    144 H63        -6.4920   -5.4560   -2.2370 hc        1 MOL      0.034375
    145 H64        -8.0020   -4.8060   -2.9810 hc        1 MOL      0.034375
    146 H65        -5.8820   -3.2140   -2.3340 h1        1 MOL      0.078347
    147 H66        -7.5560   -2.5560   -2.2340 h1        1 MOL      0.078347
    148 N13        -5.0140   -4.8690    0.6560 n         1 MOL     -0.169990
    149 C50        -3.9040   -5.6230    1.3300 c3        1 MOL     -0.318545
    150 C51        -3.8550   -5.1720    2.8410 c         1 MOL      0.526080
    151 O21        -3.4040   -5.9450    3.6790 o         1 MOL     -0.534611
    152 C52        -2.5510   -5.2290    0.5510 c3        1 MOL      0.252456
    153 C53        -2.5500   -5.8600   -0.8180 c3        1 MOL     -0.183846
    154 C54        -1.1460   -5.6030   -1.4070 c         1 MOL      0.658508
    155 O22        -0.1620   -6.1810   -0.8140 o         1 MOL     -0.752849
    156 O23        -0.9680   -4.8500   -2.4300 o         1 MOL     -0.752849
    157 H67        -4.8150   -4.1550   -0.0300 hn        1 MOL      0.306588
    158 H68        -3.9990   -6.7050    1.2270 h1        1 MOL      0.164581
    159 H69        -1.6880   -5.5730    1.1190 hc        1 MOL     -0.009779
    160 H70        -2.5310   -4.1370    0.4450 hc        1 MOL     -0.009779
    161 H71        -3.3390   -5.5010   -1.4780 hc        1 MOL      0.020565
    162 H72        -2.7100   -6.9380   -0.7200 hc        1 MOL      0.020565
    163 N14        -4.3700   -3.9500    3.1910 n         1 MOL     -0.169198
    164 C55        -4.2190   -3.4390    4.5500 c3        1 MOL     -0.378362
    165 H73        -3.2510   -3.7470    4.9470 h1        1 MOL      0.127073
    166 H74        -4.2780   -2.3510    4.5380 h1        1 MOL      0.127073
    167 H75        -5.0140   -3.8400    5.1790 h1        1 MOL      0.127073
    168 H76        -4.8460   -3.4200    2.4750 hn        1 MOL      0.208528
    169 Ca1         1.5370   -3.9880   -1.8800 Ca        1 MOL      1.766111
    170 O24         2.7380   -6.1920   -2.9140 oh        1 MOL     -0.833390
    171 H77         2.7540   -6.4730   -3.8310 ho        1 MOL      0.412021
    172 H78         3.5690   -6.5020   -2.5560 ho        1 MOL      0.412021
    173 O25         3.0560   -4.7440    0.1680 oh        1 MOL     -0.833390
    174 H79         3.9150   -5.0020   -0.1650 ho        1 MOL      0.412021
    175 H80         3.0570   -5.0410    1.0820 ho        1 MOL      0.412021
    176 O26         1.3130   -2.9480   -4.2020 oh        1 MOL     -0.833390
    177 H81         1.5510   -3.2210   -5.0820 ho        1 MOL      0.412021
    178 H82         1.1070   -2.0090   -4.2840 ho        1 MOL      0.412021
@<TRIPOS>BOND
     1    1    2 1   
     2    1    4 1   
     3    1    5 1   
     4    1    6 1   
     5    2    3 2   
     6    2    7 1   
     7    7    8 1   
     8    7   15 1   
     9    8    9 1   
    10    8   11 1   
    11    8   16 1   
    12    9   10 2   
    13    9   19 1   
    14   11   12 1   
    15   11   17 1   
    16   11   18 1   
    17   12   13 1   
    18   12   14 1   
    19   19   20 1   
    20   19   24 1   
    21   20   21 1   
    22   20   23 1   
    23   20   25 1   
    24   21   22 2   
    25   21   29 1   
    26   23   26 1   
    27   23   27 1   
    28   23   28 1   
    29   29   30 1   
    30   29   37 1   
    31   30   31 1   
    32   30   33 1   
    33   30   38 1   
    34   31   32 2   
    35   31   41 1   
    36   33   34 1   
    37   33   39 1   
    38   33   40 1   
    39   34   35 1   
    40   34   36 1   
    41   41   42 1   
    42   41   45 1   
    43   42   43 1   
    44   42   46 1   
    45   42   47 1   
    46   43   44 2   
    47   43   48 1   
    48   48   49 1   
    49   48   56 1   
    50   49   50 1   
    51   49   52 1   
    52   49   57 1   
    53   50   51 2   
    54   50   62 1   
    55   52   53 1   
    56   52   58 1   
    57   52   59 1   
    58   53   54 1   
    59   53   55 2   
    60   54   60 1   
    61   54   61 1   
    62   62   63 1   
    63   62   66 1   
    64   63   64 1   
    65   63   67 1   
    66   63   68 1   
    67   64   65 2   
    68   64   69 1   
    69   69   70 1   
    70   69   76 1   
    71   70   71 1   
    72   70   73 1   
    73   70   77 1   
    74   71   72 2   
    75   71   83 1   
    76   73   74 1   
    77   73   75 1   
    78   73   78 1   
    79   74   80 1   
    80   74   81 1   
    81   74   82 1   
    82   75   79 1   
    83   83   84 1   
    84   83   91 1   
    85   84   85 1   
    86   84   87 1   
    87   84   92 1   
    88   85   86 2   
    89   85  102 1   
    90   87   88 1   
    91   87   89 1   
    92   87   93 1   
    93   88   90 1   
    94   88   94 1   
    95   88   95 1   
    96   89   96 1   
    97   89   97 1   
    98   89   98 1   
    99   90   99 1   
   100   90  100 1   
   101   90  101 1   
   102  102  103 1   
   103  102  110 1   
   104  103  104 1   
   105  103  106 1   
   106  103  111 1   
   107  104  105 2   
   108  104  114 1   
   109  106  107 1   
   110  106  112 1   
   111  106  113 1   
   112  107  108 1   
   113  107  109 1   
   114  114  115 1   
   115  114  125 1   
   116  115  116 1   
   117  115  118 1   
   118  115  126 1   
   119  116  117 2   
   120  116  134 1   
   121  118  119 1   
   122  118  127 1   
   123  118  128 1   
   124  119  120 ar  
   125  119  121 ar  
   126  120  122 ar  
   127  120  129 1   
   128  121  123 ar  
   129  121  130 1   
   130  122  124 ar  
   131  122  131 1   
   132  123  124 ar  
   133  123  132 1   
   134  124  133 1   
   135  134  135 1   
   136  134  140 1   
   137  135  136 1   
   138  135  138 1   
   139  135  141 1   
   140  136  137 2   
   141  136  148 1   
   142  138  139 1   
   143  138  142 1   
   144  138  143 1   
   145  139  140 1   
   146  139  144 1   
   147  139  145 1   
   148  140  146 1   
   149  140  147 1   
   150  148  149 1   
   151  148  157 1   
   152  149  150 1   
   153  149  152 1   
   154  149  158 1   
   155  150  151 2   
   156  150  163 1   
   157  152  153 1   
   158  152  159 1   
   159  152  160 1   
   160  153  154 1   
   161  153  161 1   
   162  153  162 1   
   163  154  155 1   
   164  154  156 1   
   165  163  164 1   
   166  163  168 1   
   167  164  165 1   
   168  164  166 1   
   169  164  167 1   
   170  170  171 1   
   171  170  172 1   
   172  173  174 1   
   173  173  175 1   
   174  176  177 1   
   175  176  178 1   
@<TRIPOS>SUBSTRUCTURE
     1 MOL         1 TEMP              0 ****  ****    0 ROOT
