@<TRIPOS>MOLECULE
MOL
  181   177     1     0     0
SMALL
resp


@<TRIPOS>ATOM
      1 C1          1.0200   -6.5110    2.7370 c3        1 MOL     -0.328387
      2 C2          2.2280   -5.9400    2.0380 c         1 MOL      0.673561
      3 O1          2.4210   -6.2240    0.8670 o         1 MOL     -0.521453
      4 H1          0.6180   -7.3360    2.1500 hc        1 MOL      0.076295
      5 H2          1.3080   -6.8730    3.7240 hc        1 MOL      0.076295
      6 H3          0.2600   -5.7370    2.8410 hc        1 MOL      0.076295
      7 N1          3.1110   -5.2230    2.8150 n         1 MOL     -0.603289
      8 C3          4.4880   -4.7890    2.5040 c3        1 MOL     -0.003563
      9 C4          4.7570   -4.0520    1.2160 c         1 MOL      0.693929
     10 O2          4.2640   -2.9220    0.9520 o         1 MOL     -0.535076
     11 C5          4.8730   -3.8050    3.5800 c3        1 MOL     -0.208477
     12 C6          6.3290   -3.5010    3.6880 c         1 MOL      0.724056
     13 O3          6.6310   -3.0090    4.8300 o         1 MOL     -0.737129
     14 O4          7.2120   -3.7520    2.8500 o         1 MOL     -0.737129
     15 H4          2.7340   -4.8770    3.6920 hn        1 MOL      0.320231
     16 H5          5.1500   -5.6450    2.6640 h1        1 MOL      0.093315
     17 H6          4.5430   -4.1300    4.5700 hc        1 MOL      0.028068
     18 H7          4.3020   -2.8740    3.5780 hc        1 MOL      0.028068
     19 N2          5.4530   -4.7350    0.2540 n         1 MOL     -0.580988
     20 C7          5.6110   -4.3100   -1.1270 c3        1 MOL      0.343071
     21 C8          4.2740   -4.3650   -1.8550 c         1 MOL      0.763770
     22 O5          3.6570   -5.4550   -1.9090 o         1 MOL     -0.633732
     23 C9          6.6570   -5.1550   -1.9490 c3        1 MOL     -0.390521
     24 H8          6.0400   -5.5150    0.5120 hn        1 MOL      0.284431
     25 H9          5.9320   -3.2840   -0.9610 h1        1 MOL      0.022696
     26 H10         6.1820   -6.0600   -2.3270 hc        1 MOL      0.093510
     27 H11         7.0340   -4.6420   -2.8340 hc        1 MOL      0.093510
     28 H12         7.5370   -5.4600   -1.3880 hc        1 MOL      0.093510
     29 N3          3.8200   -3.3170   -2.5120 n         1 MOL     -0.793264
     30 C10         4.5950   -2.1510   -2.9560 c3        1 MOL      0.291449
     31 C11         4.4880   -0.9370   -1.9710 c         1 MOL      0.221422
     32 O6          3.5320   -0.7620   -1.1740 o         1 MOL     -0.441924
     33 C12         4.4090   -1.7880   -4.4350 c3        1 MOL     -0.448422
     34 C13         2.9330   -1.3710   -4.7430 c         1 MOL      0.808545
     35 O7          2.4980   -1.6900   -5.8380 o         1 MOL     -0.703301
     36 O8          2.2760   -0.7080   -3.9390 o         1 MOL     -0.703301
     37 H13         2.8150   -3.2790   -2.6420 hn        1 MOL      0.489322
     38 H14         5.6160   -2.4980   -2.8150 h1        1 MOL     -0.012785
     39 H15         4.8240   -2.6090   -5.0340 hc        1 MOL      0.100569
     40 H16         5.0590   -0.9180   -4.5450 hc        1 MOL      0.100569
     41 N4          5.4760   -0.0800   -2.1440 n         1 MOL     -0.349919
     42 C14         5.5960    1.2000   -1.4490 c3        1 MOL      0.032159
     43 C15         6.4990    1.0240   -0.1880 c         1 MOL      0.564861
     44 O9          6.8760   -0.0750    0.1900 o         1 MOL     -0.469871
     45 H17         6.2140   -0.3070   -2.7900 hn        1 MOL      0.279834
     46 H18         4.5850    1.4080   -1.1120 h1        1 MOL      0.067164
     47 H19         6.0640    1.9770   -2.0580 h1        1 MOL      0.067164
     48 N5          6.7680    2.1440    0.5360 n         1 MOL     -0.550325
     49 C16         6.5000    3.5820    0.2330 c3        1 MOL      0.058933
     50 C17         5.7040    4.3520    1.3120 c         1 MOL      0.531678
     51 O10         5.5530    5.5670    1.3130 o         1 MOL     -0.557031
     52 C18         7.7570    4.3640   -0.2090 c3        1 MOL     -0.096315
     53 C19         8.5610    3.5900   -1.2020 c         1 MOL      0.611681
     54 N6          9.8060    3.3200   -0.9450 n         1 MOL     -0.779565
     55 O11         8.0490    3.1720   -2.2260 o         1 MOL     -0.532922
     56 H20         7.2380    1.8580    1.3750 hn        1 MOL      0.286547
     57 H21         5.9040    3.6470   -0.6790 h1        1 MOL      0.067652
     58 H22         8.4330    4.7320    0.5740 hc        1 MOL      0.037236
     59 H23         7.5370    5.3100   -0.7110 hc        1 MOL      0.037236
     60 H24        10.1850    3.7110   -0.0940 hn        1 MOL      0.371926
     61 H25        10.3430    2.7460   -1.5780 hn        1 MOL      0.371926
     62 N7          5.0810    3.6130    2.2350 n         1 MOL     -0.281990
     63 C20         4.3840    4.1750    3.4590 c3        1 MOL     -0.296143
     64 C21         2.9420    4.7670    3.1390 c         1 MOL      0.623412
     65 O12         2.4430    5.5120    3.9280 o         1 MOL     -0.538738
     66 H26         5.2680    2.6380    2.0760 hn        1 MOL      0.236067
     67 H27         5.0870    4.9240    3.8270 h1        1 MOL      0.149988
     68 H28         4.3990    3.3260    4.1460 h1        1 MOL      0.149988
     69 N8          2.3190    4.4020    2.0110 n         1 MOL     -0.404037
     70 C22         0.9900    4.9770    1.6420 c3        1 MOL      0.024650
     71 C23        -0.0010    3.9040    1.3020 c         1 MOL      0.571758
     72 O13         0.4390    2.8010    1.1590 o         1 MOL     -0.599268
     73 C24         1.2360    5.7680    0.3620 c3        1 MOL      0.422275
     74 C25         2.1450    7.0170    0.5770 c3        1 MOL     -0.629751
     75 O14         1.8080    4.9950   -0.6360 oh        1 MOL     -0.611303
     76 H29         2.7450    3.8000    1.3310 hn        1 MOL      0.249997
     77 H30         0.5080    5.5730    2.4210 h1        1 MOL      0.053555
     78 H31         0.2400    6.0390    0.0200 h1        1 MOL     -0.053065
     79 H32         1.3450    5.2610   -1.4390 ho        1 MOL      0.418782
     80 H33         2.4260    7.4540   -0.3840 hc        1 MOL      0.170191
     81 H34         1.8520    7.7170    1.3630 hc        1 MOL      0.170191
     82 H35         3.1160    6.6300    0.8710 hc        1 MOL      0.170191
     83 N9         -1.2880    4.2660    1.1520 n         1 MOL     -0.274895
     84 C26        -2.3700    3.3230    0.8190 c3        1 MOL     -0.366407
     85 C27        -2.7180    3.4500   -0.7010 c         1 MOL      0.437002
     86 O15        -2.9000    4.4910   -1.3310 o         1 MOL     -0.528361
     87 C28        -3.5960    3.7250    1.7620 c3        1 MOL      0.064042
     88 C29        -4.9770    3.1890    1.3270 c3        1 MOL      0.154430
     89 C30        -3.2410    3.2570    3.1650 c3        1 MOL     -0.235031
     90 C31        -6.0900    3.4800    2.2920 c3        1 MOL     -0.123157
     91 H36        -1.5230    5.2290    1.3400 hn        1 MOL      0.241839
     92 H37        -2.0060    2.3220    1.0570 h1        1 MOL      0.342529
     93 H38        -3.6380    4.8070    1.8330 hc        1 MOL      0.050245
     94 H39        -4.8370    2.1160    1.2400 hc        1 MOL      0.001144
     95 H40        -5.3350    3.4490    0.3360 hc        1 MOL      0.001144
     96 H41        -3.9180    3.7830    3.8430 hc        1 MOL      0.053576
     97 H42        -3.2560    2.1690    3.1930 hc        1 MOL      0.053576
     98 H43        -2.2260    3.5710    3.3820 hc        1 MOL      0.053576
     99 H44        -6.2440    4.5570    2.3520 hc        1 MOL      0.007165
    100 H45        -6.9580    2.9600    1.8940 hc        1 MOL      0.007165
    101 H46        -5.7780    2.9900    3.2120 hc        1 MOL      0.007165
    102 N10        -2.9390    2.2850   -1.2730 n         1 MOL     -0.195186
    103 C32        -3.6080    2.0660   -2.5890 c3        1 MOL     -0.104610
    104 C33        -5.1030    1.6090   -2.4770 c         1 MOL      0.431266
    105 O16        -5.9460    1.9710   -3.2760 o         1 MOL     -0.551882
    106 C34        -2.7930    1.1130   -3.4750 c3        1 MOL     -0.119875
    107 C35        -1.3130    1.2760   -3.5530 c         1 MOL      0.736410
    108 O17        -0.7710    2.3880   -3.7560 o         1 MOL     -0.696954
    109 O18        -0.6570    0.2060   -3.5130 o         1 MOL     -0.696954
    110 H47        -2.9840    1.4940   -0.6400 hn        1 MOL      0.048909
    111 H48        -3.5640    3.0320   -3.0880 h1        1 MOL      0.116156
    112 H49        -3.1860    0.9500   -4.4800 hc        1 MOL      0.043431
    113 H50        -3.0110    0.0880   -3.1500 hc        1 MOL      0.043431
    114 N11        -5.3860    0.7410   -1.4910 n         1 MOL     -0.075568
    115 C36        -6.6390    0.0540   -1.2280 c3        1 MOL      0.061682
    116 C37        -6.3270   -1.2890   -0.4190 c         1 MOL      0.350561
    117 O19        -6.8740   -1.5360    0.6930 o         1 MOL     -0.478572
    118 C38        -7.6410    0.9230   -0.5250 c3        1 MOL     -0.445725
    119 C39        -9.0240    0.5610   -0.9160 ca        1 MOL      0.268440
    120 C40        -9.8300    0.0320    0.0610 ca        1 MOL     -0.185355
    121 C41        -9.5600    0.9130   -2.1870 ca        1 MOL     -0.185355
    122 C42       -11.1800   -0.2840   -0.2240 ca        1 MOL     -0.147821
    123 C43       -10.9160    0.6030   -2.4670 ca        1 MOL     -0.147821
    124 C44       -11.7090   -0.0320   -1.4920 ca        1 MOL     -0.110523
    125 H51        -4.5630    0.5470   -0.9330 hn        1 MOL      0.261318
    126 H52        -7.0280   -0.2610   -2.1910 h1        1 MOL      0.065143
    127 H53        -7.5070    1.9940   -0.7270 hc        1 MOL      0.133469
    128 H54        -7.5760    0.9200    0.5590 hc        1 MOL      0.133469
    129 H55        -9.4190   -0.1060    1.0480 ha        1 MOL      0.132077
    130 H56        -8.9330    1.5110   -2.8360 ha        1 MOL      0.132077
    131 H57       -11.8210   -0.7090    0.5440 ha        1 MOL      0.111696
    132 H58       -11.3390    0.9870   -3.3780 ha        1 MOL      0.111696
    133 H59       -12.7580   -0.2080   -1.6440 ha        1 MOL      0.093682
    134 N12        -5.4060   -2.1910   -0.9170 n         1 MOL     -0.180093
    135 C45        -5.2100   -3.4980   -0.3100 c3        1 MOL     -0.020513
    136 C46        -4.8540   -3.4710    1.1850 c         1 MOL      0.247287
    137 O20        -4.9970   -4.4960    1.8940 o         1 MOL     -0.494876
    138 C47        -4.0100   -4.1530   -1.0870 c3        1 MOL     -0.100127
    139 C48        -4.2890   -3.5140   -2.5220 c3        1 MOL     -0.180115
    140 C49        -4.5750   -2.0590   -2.1600 c3        1 MOL      0.116583
    141 H60        -6.0680   -4.1450   -0.4680 h1        1 MOL      0.103471
    142 H61        -3.0390   -3.8480   -0.7270 hc        1 MOL      0.085707
    143 H62        -4.0860   -5.2400   -1.0210 hc        1 MOL      0.085707
    144 H63        -3.4290   -3.5440   -3.2040 hc        1 MOL      0.062502
    145 H64        -5.1620   -3.9850   -2.9670 hc        1 MOL      0.062502
    146 H65        -3.5870   -1.6140   -2.0380 h1        1 MOL      0.019903
    147 H66        -5.1090   -1.5120   -2.9360 h1        1 MOL      0.019903
    148 N13        -4.3870   -2.3270    1.6520 n         1 MOL      0.036005
    149 C50        -3.9530   -2.1060    3.0040 c3        1 MOL     -0.128841
    150 C51        -5.2370   -1.9880    3.9220 c         1 MOL      0.319887
    151 O21        -5.4280   -2.9080    4.7140 o         1 MOL     -0.489002
    152 C52        -3.2220   -0.7210    2.9950 c3        1 MOL      0.031149
    153 C53        -1.9620   -0.6410    2.0810 c3        1 MOL     -0.252323
    154 C54        -2.2060   -0.5030    0.6180 c         1 MOL      0.683780
    155 O22        -1.2330   -0.7400   -0.1660 o         1 MOL     -0.725082
    156 O23        -3.3200   -0.0790    0.3010 o         1 MOL     -0.725082
    157 H67        -4.2400   -1.5690    0.9950 hn        1 MOL      0.223688
    158 H68        -3.3170   -2.9540    3.2890 h1        1 MOL      0.112778
    159 H69        -2.8650   -0.4570    3.9960 hc        1 MOL     -0.003965
    160 H70        -3.8700    0.0790    2.6390 hc        1 MOL     -0.003965
    161 H71        -1.4050   -1.5370    2.3490 hc        1 MOL      0.077338
    162 H72        -1.3720    0.2040    2.4440 hc        1 MOL      0.077338
    163 N14        -6.1900   -1.1310    3.5810 n         1 MOL     -0.057232
    164 C55        -7.4660   -0.9190    4.2380 c3        1 MOL     -0.333313
    165 H73        -8.2020   -1.6130    3.8340 h1        1 MOL      0.113984
    166 H74        -7.3570   -1.0890    5.3080 h1        1 MOL      0.113984
    167 H75        -7.7990    0.1040    4.0640 h1        1 MOL      0.113984
    168 H76        -5.9810   -0.4250    2.8840 hn        1 MOL      0.204844
    169 Ca1         0.9550   -0.5590   -1.4800 Ca        1 MOL      1.763146
    170 O24         1.1320    2.2270   -1.9420 oh        1 MOL     -0.891255
    171 H77         1.4490    3.0070   -1.4730 ho        1 MOL      0.418009
    172 H78         0.3320    2.5160   -2.3820 ho        1 MOL      0.418009
    173 O25         1.6410   -2.4700    0.5280 oh        1 MOL     -0.891255
    174 H79         1.3370   -2.2080    1.4010 ho        1 MOL      0.418009
    175 H80         2.5520   -2.7130    0.6590 ho        1 MOL      0.418009
    176 O26         0.8750   -2.8900   -2.7340 oh        1 MOL     -0.891255
    177 H81         0.5410   -2.7690   -3.6240 ho        1 MOL      0.418009
    178 H82         0.6730   -3.8030   -2.5230 ho        1 MOL      0.418009
    179 O27         1.9230    0.6670    0.9270 oh        1 MOL     -0.891255
    180 H83         1.4640    1.4170    1.3030 ho        1 MOL      0.418009
    181 H84         2.7960    0.7150    1.3020 ho        1 MOL      0.418009
@<TRIPOS>BOND
     1    1    2 1   
     2    1    4 1   
     3    1    5 1   
     4    1    6 1   
     5    2    3 2   
     6    2    7 1   
     7    7    8 1   
     8    7   15 1   
     9    8    9 1   
    10    8   11 1   
    11    8   16 1   
    12    9   10 2   
    13    9   19 1   
    14   11   12 1   
    15   11   17 1   
    16   11   18 1   
    17   12   13 1   
    18   12   14 1   
    19   19   20 1   
    20   19   24 1   
    21   20   21 1   
    22   20   23 1   
    23   20   25 1   
    24   21   22 2   
    25   21   29 1   
    26   23   26 1   
    27   23   27 1   
    28   23   28 1   
    29   29   30 1   
    30   29   37 1   
    31   30   31 1   
    32   30   33 1   
    33   30   38 1   
    34   31   32 2   
    35   31   41 1   
    36   33   34 1   
    37   33   39 1   
    38   33   40 1   
    39   34   35 1   
    40   34   36 1   
    41   41   42 1   
    42   41   45 1   
    43   42   43 1   
    44   42   46 1   
    45   42   47 1   
    46   43   44 2   
    47   43   48 1   
    48   48   49 1   
    49   48   56 1   
    50   49   50 1   
    51   49   52 1   
    52   49   57 1   
    53   50   51 2   
    54   50   62 1   
    55   52   53 1   
    56   52   58 1   
    57   52   59 1   
    58   53   54 1   
    59   53   55 2   
    60   54   60 1   
    61   54   61 1   
    62   62   63 1   
    63   62   66 1   
    64   63   64 1   
    65   63   67 1   
    66   63   68 1   
    67   64   65 2   
    68   64   69 1   
    69   69   70 1   
    70   69   76 1   
    71   70   71 1   
    72   70   73 1   
    73   70   77 1   
    74   71   72 2   
    75   71   83 1   
    76   73   74 1   
    77   73   75 1   
    78   73   78 1   
    79   74   80 1   
    80   74   81 1   
    81   74   82 1   
    82   75   79 1   
    83   83   84 1   
    84   83   91 1   
    85   84   85 1   
    86   84   87 1   
    87   84   92 1   
    88   85   86 2   
    89   85  102 1   
    90   87   88 1   
    91   87   89 1   
    92   87   93 1   
    93   88   90 1   
    94   88   94 1   
    95   88   95 1   
    96   89   96 1   
    97   89   97 1   
    98   89   98 1   
    99   90   99 1   
   100   90  100 1   
   101   90  101 1   
   102  102  103 1   
   103  102  110 1   
   104  103  104 1   
   105  103  106 1   
   106  103  111 1   
   107  104  105 2   
   108  104  114 1   
   109  106  107 1   
   110  106  112 1   
   111  106  113 1   
   112  107  108 1   
   113  107  109 1   
   114  114  115 1   
   115  114  125 1   
   116  115  116 1   
   117  115  118 1   
   118  115  126 1   
   119  116  117 2   
   120  116  134 1   
   121  118  119 1   
   122  118  127 1   
   123  118  128 1   
   124  119  120 ar  
   125  119  121 ar  
   126  120  122 ar  
   127  120  129 1   
   128  121  123 ar  
   129  121  130 1   
   130  122  124 ar  
   131  122  131 1   
   132  123  124 ar  
   133  123  132 1   
   134  124  133 1   
   135  134  135 1   
   136  134  140 1   
   137  135  136 1   
   138  135  138 1   
   139  135  141 1   
   140  136  137 2   
   141  136  148 1   
   142  138  139 1   
   143  138  142 1   
   144  138  143 1   
   145  139  140 1   
   146  139  144 1   
   147  139  145 1   
   148  140  146 1   
   149  140  147 1   
   150  148  149 1   
   151  148  157 1   
   152  149  150 1   
   153  149  152 1   
   154  149  158 1   
   155  150  151 2   
   156  150  163 1   
   157  152  153 1   
   158  152  159 1   
   159  152  160 1   
   160  153  154 1   
   161  153  161 1   
   162  153  162 1   
   163  154  155 1   
   164  154  156 1   
   165  163  164 1   
   166  163  168 1   
   167  164  165 1   
   168  164  166 1   
   169  164  167 1   
   170  170  171 1   
   171  170  172 1   
   172  173  174 1   
   173  173  175 1   
   174  176  177 1   
   175  176  178 1   
   176  179  180 1   
   177  179  181 1   
@<TRIPOS>SUBSTRUCTURE
     1 MOL         1 TEMP              0 ****  ****    0 ROOT
