@<TRIPOS>MOLECULE
MOL
  192   187     1     0     0
SMALL
resp


@<TRIPOS>ATOM
      1 C1         -6.6690   -2.7230    4.8570 c3        1 MOL     -0.258146
      2 C2         -5.9020   -2.1400    3.6660 c         1 MOL      0.785845
      3 O1         -5.4120   -2.9600    2.8890 o         1 MOL     -0.631834
      4 H1         -6.5520   -2.0660    5.7200 hc        1 MOL      0.059132
      5 H2         -7.7260   -2.8040    4.6040 hc        1 MOL      0.059132
      6 H3         -6.2740   -3.7100    5.0960 hc        1 MOL      0.059132
      7 N1         -5.6600   -0.8790    3.5300 n         1 MOL     -0.670305
      8 C3         -5.0270   -0.2160    2.3870 c3        1 MOL      0.537318
      9 C4         -3.4720   -0.3680    2.1520 c         1 MOL      0.170008
     10 O2         -2.9690    0.4360    1.3690 o         1 MOL     -0.066004
     11 C5         -5.4250    1.2310    2.3810 c3        1 MOL     -0.445383
     12 C6         -6.8790    1.4670    2.6440 c         1 MOL      0.842286
     13 O3         -7.3710    1.3030    3.7890 o         1 MOL     -0.732408
     14 O4         -7.6190    1.9460    1.7970 o         1 MOL     -0.732408
     15 H4         -6.0370   -0.3010    4.2650 hn        1 MOL      0.275280
     16 H5         -5.4970   -0.6610    1.5180 h1        1 MOL     -0.005410
     17 H6         -5.0640    1.8020    1.5150 hc        1 MOL      0.035617
     18 H7         -4.8470    1.6250    3.2130 hc        1 MOL      0.035617
     19 N2         -2.7560   -1.3020    2.8250 n         1 MOL     -0.408901
     20 C7         -1.2230   -1.3030    2.8060 c3        1 MOL      0.199319
     21 C8         -0.7190   -2.5430    2.0240 c         1 MOL      0.550508
     22 O5         -1.0530   -3.6770    2.4190 o         1 MOL     -0.544908
     23 C9         -0.5750   -1.2320    4.2760 c3        1 MOL     -0.396011
     24 C10        -0.6140    0.2000    4.9070 c3        1 MOL      0.024355
     25 C11         0.0530    0.3080    6.2470 c3        1 MOL     -0.128371
     26 C12         0.0280    1.7840    6.8080 c3        1 MOL      0.081400
     27 N3          0.5970    1.7780    8.2290 n4        1 MOL     -0.434897
     28 H8         -3.2690   -2.0520    3.2590 hn        1 MOL      0.281140
     29 H9         -0.9200   -0.3960    2.2750 h1        1 MOL     -0.083256
     30 H10         0.4760   -1.4860    4.0880 hc        1 MOL      0.139606
     31 H11        -0.8910   -2.0280    4.9420 hc        1 MOL      0.139606
     32 H12        -1.6470    0.5250    5.0370 hc        1 MOL      0.059589
     33 H13        -0.2320    0.9480    4.2170 hc        1 MOL      0.059589
     34 H14         1.0920    0.1300    5.9610 hc        1 MOL      0.073613
     35 H15        -0.3110   -0.4140    6.9770 hc        1 MOL      0.073613
     36 H16        -1.0170    2.0920    6.8390 hx        1 MOL      0.085290
     37 H17         0.5480    2.4160    6.0790 hx        1 MOL      0.085290
     38 H18         1.6090    1.7270    8.2490 hn        1 MOL      0.344361
     39 H19         0.4060    2.6750    8.6670 hn        1 MOL      0.344361
     40 H20         0.1760    1.1060    8.8530 hn        1 MOL      0.344361
     41 N4          0.1280   -2.4250    0.9450 n         1 MOL     -0.065009
     42 C13         0.7890   -1.2000    0.3910 c3        1 MOL     -0.442429
     43 C14         1.3660   -0.2440    1.4320 c         1 MOL      0.889047
     44 O6          1.1290    0.9340    1.3910 o         1 MOL     -0.594677
     45 C15        -0.1550   -0.5440   -0.5930 c3        1 MOL     -0.840593
     46 C16        -0.3040   -1.3270   -1.9650 c         1 MOL      0.619833
     47 O7          0.1930   -2.4570   -1.9120 o         1 MOL     -0.611328
     48 O8         -1.0030   -0.8980   -2.9160 o         1 MOL     -0.611328
     49 H21         0.4000   -3.2640    0.4660 hn        1 MOL      0.065774
     50 H22         1.6750   -1.4490   -0.2020 h1        1 MOL      0.188637
     51 H23         0.1380    0.4700   -0.8800 hc        1 MOL      0.328496
     52 H24        -1.1790   -0.4900   -0.2220 hc        1 MOL      0.328496
     53 N5          2.3700   -0.6180    2.2730 n         1 MOL     -0.679720
     54 C17         3.0190   -1.8970    2.1550 c3        1 MOL      0.378567
     55 C18         4.2250   -1.9360    3.0890 c         1 MOL      0.555681
     56 O9          4.3090   -1.1260    4.0140 o         1 MOL     -0.562775
     57 H25         2.9370    0.1100    2.6760 hn        1 MOL      0.334639
     58 H26         3.4120   -1.9700    1.1360 h1        1 MOL     -0.063605
     59 H27         2.3080   -2.6640    2.4860 h1        1 MOL     -0.063605
     60 N6          5.2490   -2.7620    2.8920 n         1 MOL     -0.556570
     61 C19         5.5610   -3.5470    1.6920 c3        1 MOL      0.171849
     62 C20         6.2760   -2.8400    0.5270 c         1 MOL      0.490703
     63 O10         7.1620   -1.9970    0.6830 o         1 MOL     -0.454676
     64 C21         6.4650   -4.7360    2.0880 c3        1 MOL     -0.251331
     65 C22         6.2070   -5.3600    3.4790 c         1 MOL      0.694342
     66 O11         5.7670   -6.5730    3.5240 o         1 MOL     -0.634850
     67 O12         6.4630   -4.7980    4.5990 o         1 MOL     -0.634850
     68 H28         5.9280   -2.7360    3.6480 hn        1 MOL      0.330993
     69 H29         4.6550   -3.9820    1.2710 h1        1 MOL     -0.026682
     70 H30         7.5230   -4.4540    2.0380 hc        1 MOL      0.067298
     71 H31         6.3640   -5.4910    1.3150 hc        1 MOL      0.067298
     72 N7          5.9270   -3.2770   -0.6860 n         1 MOL     -0.295926
     73 C23         6.4640   -2.8430   -1.9930 c3        1 MOL     -0.097908
     74 C24         6.3800   -1.3370   -2.2490 c         1 MOL      0.382796
     75 O13         7.3520   -0.5970   -2.2110 o         1 MOL     -0.471491
     76 H32         5.3850   -4.1240   -0.7440 hn        1 MOL      0.161657
     77 H33         5.9770   -3.4520   -2.7660 h1        1 MOL      0.075091
     78 H34         7.4990   -3.1380   -1.9420 h1        1 MOL      0.075091
     79 N8          5.1630   -0.8120   -2.3460 n         1 MOL     -0.211285
     80 C25         4.9410    0.6260   -2.5490 c3        1 MOL     -0.003290
     81 C26         5.1570    1.5140   -1.3150 c         1 MOL      0.487146
     82 O14         4.9970    1.0660   -0.1430 o         1 MOL     -0.472175
     83 C27         3.4980    0.7930   -3.0890 c3        1 MOL      0.248716
     84 C28         3.2510    0.2030   -4.4620 c3        1 MOL     -0.276993
     85 O15         3.1110    2.1780   -3.2180 oh        1 MOL     -0.538094
     86 H35         4.3750   -1.4290   -2.2870 hn        1 MOL      0.120091
     87 H36         5.6060    1.0540   -3.2910 h1        1 MOL      0.081553
     88 H37         2.7790    0.2870   -2.4380 h1        1 MOL      0.132905
     89 H38         2.3220    2.3430   -2.7020 ho        1 MOL      0.330058
     90 H39         3.7010    0.8550   -5.2080 hc        1 MOL      0.065538
     91 H40         3.6680   -0.8030   -4.5410 hc        1 MOL      0.065538
     92 H41         2.1900    0.1080   -4.6950 hc        1 MOL      0.065538
     93 N9          5.5290    2.7900   -1.5970 n         1 MOL     -0.572033
     94 C29         5.7800    3.7750   -0.5920 c3        1 MOL      0.488003
     95 C30         4.4220    4.3040    0.0380 c         1 MOL      0.235501
     96 O16         4.2590    4.6950    1.1490 o         1 MOL     -0.492764
     97 C31         6.7670    4.8800   -0.9220 c3        1 MOL      0.103138
     98 C32         7.9850    4.4700   -1.5630 c3        1 MOL      0.173166
     99 C33         6.9400    5.8660    0.2460 c3        1 MOL     -0.170915
    100 C34         8.9740    3.6980   -0.6450 c3        1 MOL     -0.319293
    101 H42         5.4820    3.0370   -2.5680 hn        1 MOL      0.337204
    102 H43         6.2760    3.2740    0.2440 h1        1 MOL     -0.016033
    103 H44         6.1720    5.3590   -1.7040 hc        1 MOL     -0.068711
    104 H45         8.4910    5.3550   -1.9330 hc        1 MOL     -0.051074
    105 H46         7.7650    3.8840   -2.4560 hc        1 MOL     -0.051074
    106 H47         6.9870    5.2320    1.1340 hc        1 MOL      0.038483
    107 H48         7.9010    6.3700    0.1570 hc        1 MOL      0.038483
    108 H49         6.2290    6.6920    0.2710 hc        1 MOL      0.038483
    109 H50         9.2500    4.2800    0.2350 hc        1 MOL      0.080336
    110 H51         8.5400    2.7270   -0.4110 hc        1 MOL      0.080336
    111 H52         9.9220    3.5770   -1.1760 hc        1 MOL      0.080336
    112 N10         3.3000    4.1670   -0.7350 n         1 MOL     -0.053295
    113 C35         1.9740    4.8390   -0.4810 c3        1 MOL     -0.118074
    114 C36         0.8150    3.8850   -0.6700 c         1 MOL      0.692105
    115 O17         0.8430    3.0220   -1.5310 o         1 MOL     -0.505778
    116 C37         1.8250    6.0740   -1.4550 c3        1 MOL      0.362625
    117 C38         2.0700    5.7210   -2.8880 c3        1 MOL     -0.390182
    118 O18         2.8530    6.9990   -1.1120 oh        1 MOL     -0.575289
    119 H53         3.4740    3.7030   -1.6180 hn        1 MOL     -0.055572
    120 H54         1.9810    5.1830    0.5510 h1        1 MOL      0.069656
    121 H55         0.8020    6.4480   -1.3440 h1        1 MOL     -0.014203
    122 H56         2.5790    7.5170   -0.3540 ho        1 MOL      0.359022
    123 H57         1.9820    6.6410   -3.4650 hc        1 MOL      0.116761
    124 H58         3.0940    5.3760   -3.0290 hc        1 MOL      0.116761
    125 H59         1.3350    4.9770   -3.2160 hc        1 MOL      0.116761
    126 N11        -0.1150    4.0650    0.1920 n         1 MOL     -0.728968
    127 C39        -1.3060    3.2450    0.3400 c3        1 MOL      0.330339
    128 C40        -2.2150    3.1600   -0.8600 c         1 MOL      0.383386
    129 O19        -2.2230    4.1220   -1.6480 o         1 MOL     -0.515297
    130 C41        -2.2610    3.5670    1.5290 c3        1 MOL      0.175827
    131 C42        -3.0050    4.8950    1.4720 c3        1 MOL     -0.093613
    132 O20        -1.5200    3.3390    2.7440 oh        1 MOL     -0.640265
    133 H60         0.2610    4.5120    1.0240 hn        1 MOL      0.370484
    134 H61        -1.0470    2.1970    0.4850 h1        1 MOL      0.178176
    135 H62        -3.1040    2.8760    1.5970 h1        1 MOL      0.118365
    136 H63        -2.1910    3.3040    3.4300 ho        1 MOL      0.362702
    137 H64        -3.7130    4.9020    0.6380 hc        1 MOL      0.027016
    138 H65        -3.6100    5.1250    2.3440 hc        1 MOL      0.027016
    139 H66        -2.4410    5.8230    1.3720 hc        1 MOL      0.027016
    140 N12        -2.9640    2.0470   -0.9290 n         1 MOL     -0.109008
    141 C43        -4.0430    1.8260   -1.8670 c3        1 MOL      0.074176
    142 C44        -4.2140    0.4290   -2.3480 c         1 MOL      0.576398
    143 O21        -4.6240    0.2200   -3.4410 o         1 MOL     -0.598108
    144 C45        -5.3340    2.4930   -1.2850 c3        1 MOL      0.001906
    145 C46        -6.3010    3.1300   -2.2780 c3        1 MOL     -0.208271
    146 C47        -7.7420    3.4300   -1.8330 c3        1 MOL      0.166458
    147 C48        -8.6850    3.7580   -2.9870 c3        1 MOL     -0.039264
    148 N13       -10.0520    3.9860   -2.4770 n4        1 MOL     -0.236165
    149 H67        -2.9560    1.4740   -0.0980 hn        1 MOL     -0.561745
    150 H68        -3.8450    2.3560   -2.7980 h1        1 MOL      0.056764
    151 H69        -5.0470    3.3220   -0.6370 hc        1 MOL      0.056565
    152 H70        -5.9900    1.7400   -0.8550 hc        1 MOL      0.056565
    153 H71        -6.4700    2.4530   -3.1150 hc        1 MOL      0.047899
    154 H72        -5.8610    3.9820   -2.7960 hc        1 MOL      0.047899
    155 H73        -7.7510    4.2690   -1.1330 hc        1 MOL      0.011633
    156 H74        -8.1360    2.6490   -1.1830 hc        1 MOL      0.011633
    157 H75        -8.6770    2.9050   -3.6570 hx        1 MOL      0.078109
    158 H76        -8.4390    4.7170   -3.4450 hx        1 MOL      0.078109
    159 H77       -10.4780    3.1320   -2.1390 hn        1 MOL      0.295238
    160 H78       -10.1610    4.7280   -1.8070 hn        1 MOL      0.295238
    161 H79       -10.5720    4.2050   -3.3110 hn        1 MOL      0.295238
    162 N14        -3.9640   -0.5850   -1.4610 n         1 MOL      0.060470
    163 C49        -4.3440   -1.9210   -1.7820 c3        1 MOL     -0.291189
    164 C50        -5.8890   -2.1660   -1.5520 c         1 MOL      0.396250
    165 O22        -6.4800   -1.5820   -0.6880 o         1 MOL     -0.481118
    166 C51        -3.5550   -2.9380   -0.8850 c3        1 MOL      0.453861
    167 C52        -3.7020   -4.4700   -1.2020 c3        1 MOL     -0.230777
    168 C53        -3.4640   -4.7520   -2.6220 c         1 MOL      0.387360
    169 O23        -4.5080   -4.8270   -3.3260 o         1 MOL     -0.619148
    170 O24        -2.3150   -4.6450   -3.0530 o         1 MOL     -0.619148
    171 H80        -3.6550   -0.3060   -0.5420 hn        1 MOL      0.165104
    172 H81        -4.1130   -2.1280   -2.8290 h1        1 MOL      0.166880
    173 H82        -3.8470   -2.7820    0.1520 hc        1 MOL     -0.118603
    174 H83        -2.5160   -2.6660   -1.0560 hc        1 MOL     -0.118603
    175 H84        -4.7100   -4.7780   -0.9040 hc        1 MOL      0.054177
    176 H85        -3.0280   -5.0440   -0.5660 hc        1 MOL      0.054177
    177 N15        -6.4700   -3.0520   -2.3210 n         1 MOL     -0.287536
    178 C54        -7.9070   -3.2290   -2.5420 c3        1 MOL     -0.055590
    179 H86        -8.0760   -3.5970   -3.5550 h1        1 MOL      0.049846
    180 H87        -8.3000   -3.9490   -1.8250 h1        1 MOL      0.049846
    181 H88        -8.4150   -2.2730   -2.4150 h1        1 MOL      0.049846
    182 H89        -5.8730   -3.6100   -2.9030 hn        1 MOL      0.311007
    183 Ca1         0.2840   -4.8850   -3.0890 Ca        1 MOL      1.570144
    184 O25        -0.7170   -5.3070   -5.5290 oh        1 MOL     -0.833303
    185 H90        -1.4600   -4.7880   -5.8240 ho        1 MOL      0.418503
    186 H91        -1.0730   -6.2030   -5.4560 ho        1 MOL      0.418503
    187 O26         3.1840   -5.2260   -3.8820 oh        1 MOL     -0.833303
    188 H92         3.5560   -5.3630   -3.0090 ho        1 MOL      0.418503
    189 H93         3.8530   -4.7220   -4.3510 ho        1 MOL      0.418503
    190 O27         1.5550   -3.3090   -4.7360 oh        1 MOL     -0.833303
    191 H94         2.4660   -3.3060   -5.0410 ho        1 MOL      0.418503
    192 H95         1.1180   -2.6590   -5.2890 ho        1 MOL      0.418503
@<TRIPOS>BOND
     1    1    2 1   
     2    1    4 1   
     3    1    5 1   
     4    1    6 1   
     5    2    3 2   
     6    2    7 1   
     7    7    8 1   
     8    7   15 1   
     9    8    9 1   
    10    8   11 1   
    11    8   16 1   
    12    9   10 2   
    13    9   19 1   
    14   11   12 1   
    15   11   17 1   
    16   11   18 1   
    17   12   13 1   
    18   12   14 1   
    19   19   20 1   
    20   19   28 1   
    21   20   21 1   
    22   20   23 1   
    23   20   29 1   
    24   21   22 2   
    25   21   41 1   
    26   23   24 1   
    27   23   30 1   
    28   23   31 1   
    29   24   25 1   
    30   24   32 1   
    31   24   33 1   
    32   25   26 1   
    33   25   34 1   
    34   25   35 1   
    35   26   27 1   
    36   26   36 1   
    37   26   37 1   
    38   27   38 1   
    39   27   39 1   
    40   27   40 1   
    41   41   42 1   
    42   41   49 1   
    43   42   43 1   
    44   42   45 1   
    45   42   50 1   
    46   43   44 2   
    47   43   53 1   
    48   45   46 1   
    49   45   51 1   
    50   45   52 1   
    51   46   47 1   
    52   46   48 1   
    53   53   54 1   
    54   53   57 1   
    55   54   55 1   
    56   54   58 1   
    57   54   59 1   
    58   55   56 2   
    59   55   60 1   
    60   60   61 1   
    61   60   68 1   
    62   61   62 1   
    63   61   64 1   
    64   61   69 1   
    65   62   63 2   
    66   62   72 1   
    67   64   65 1   
    68   64   70 1   
    69   64   71 1   
    70   65   66 1   
    71   65   67 1   
    72   72   73 1   
    73   72   76 1   
    74   73   74 1   
    75   73   77 1   
    76   73   78 1   
    77   74   75 2   
    78   74   79 1   
    79   79   80 1   
    80   79   86 1   
    81   80   81 1   
    82   80   83 1   
    83   80   87 1   
    84   81   82 2   
    85   81   93 1   
    86   83   84 1   
    87   83   85 1   
    88   83   88 1   
    89   84   90 1   
    90   84   91 1   
    91   84   92 1   
    92   85   89 1   
    93   93   94 1   
    94   93  101 1   
    95   94   95 1   
    96   94   97 1   
    97   94  102 1   
    98   95   96 2   
    99   95  112 1   
   100   97   98 1   
   101   97   99 1   
   102   97  103 1   
   103   98  100 1   
   104   98  104 1   
   105   98  105 1   
   106   99  106 1   
   107   99  107 1   
   108   99  108 1   
   109  100  109 1   
   110  100  110 1   
   111  100  111 1   
   112  112  113 1   
   113  112  119 1   
   114  113  114 1   
   115  113  116 1   
   116  113  120 1   
   117  114  115 2   
   118  114  126 1   
   119  116  117 1   
   120  116  118 1   
   121  116  121 1   
   122  117  123 1   
   123  117  124 1   
   124  117  125 1   
   125  118  122 1   
   126  126  127 1   
   127  126  133 1   
   128  127  128 1   
   129  127  130 1   
   130  127  134 1   
   131  128  129 2   
   132  128  140 1   
   133  130  131 1   
   134  130  132 1   
   135  130  135 1   
   136  131  137 1   
   137  131  138 1   
   138  131  139 1   
   139  132  136 1   
   140  140  141 1   
   141  140  149 1   
   142  141  142 1   
   143  141  144 1   
   144  141  150 1   
   145  142  143 2   
   146  142  162 1   
   147  144  145 1   
   148  144  151 1   
   149  144  152 1   
   150  145  146 1   
   151  145  153 1   
   152  145  154 1   
   153  146  147 1   
   154  146  155 1   
   155  146  156 1   
   156  147  148 1   
   157  147  157 1   
   158  147  158 1   
   159  148  159 1   
   160  148  160 1   
   161  148  161 1   
   162  162  163 1   
   163  162  171 1   
   164  163  164 1   
   165  163  166 1   
   166  163  172 1   
   167  164  165 2   
   168  164  177 1   
   169  166  167 1   
   170  166  173 1   
   171  166  174 1   
   172  167  168 1   
   173  167  175 1   
   174  167  176 1   
   175  168  169 1   
   176  168  170 1   
   177  177  178 1   
   178  177  182 1   
   179  178  179 1   
   180  178  180 1   
   181  178  181 1   
   182  184  185 1   
   183  184  186 1   
   184  187  188 1   
   185  187  189 1   
   186  190  191 1   
   187  190  192 1   
@<TRIPOS>SUBSTRUCTURE
     1 MOL         1 TEMP              0 ****  ****    0 ROOT
