@<TRIPOS>MOLECULE
MOL
  188   182     1     0     0
SMALL
resp


@<TRIPOS>ATOM
      1 C1          4.1650    0.2500    3.5820 c3        1 MOL     -0.333583
      2 C2          5.1700    0.2180    2.3800 c         1 MOL      0.390418
      3 O1          4.7560    0.1620    1.2290 o         1 MOL     -0.421259
      4 H1          4.7120    0.1230    4.5160 hc        1 MOL      0.092199
      5 H2          3.6430    1.2070    3.5950 hc        1 MOL      0.092199
      6 H3          3.4410   -0.5580    3.4720 hc        1 MOL      0.092199
      7 N1          6.4860    0.3400    2.5690 n         1 MOL     -0.315564
      8 C3          7.4220    0.7130    1.4610 c3        1 MOL     -0.227087
      9 C4          7.3380   -0.2170    0.1540 c         1 MOL      0.367411
     10 O2          7.2130    0.1800   -1.0490 o         1 MOL     -0.425939
     11 C5          7.3400    2.1860    1.0630 c3        1 MOL     -0.170726
     12 C6          8.5410    2.6660    0.2100 c         1 MOL      0.761044
     13 O3          9.6940    2.3790    0.5740 o         1 MOL     -0.665073
     14 O4          8.3390    3.3790   -0.7640 o         1 MOL     -0.665073
     15 H4          6.8570    0.2150    3.5030 hn        1 MOL      0.293931
     16 H5          8.4010    0.5520    1.9160 h1        1 MOL      0.080497
     17 H6          7.4050    2.8670    1.9210 hc        1 MOL      0.101185
     18 H7          6.3510    2.3180    0.6370 hc        1 MOL      0.101185
     19 N2          7.3640   -1.5400    0.4190 n         1 MOL     -0.208787
     20 C7          7.2920   -2.7110   -0.5370 c3        1 MOL     -0.149756
     21 C8          5.8960   -3.3260   -0.7640 c         1 MOL      0.552827
     22 O5          5.7050   -4.2470   -1.5950 o         1 MOL     -0.546918
     23 C9          8.3250   -3.7450    0.0410 c3        1 MOL      0.116768
     24 C10         9.7630   -3.1350    0.3260 c3        1 MOL     -0.156370
     25 C11        10.7610   -4.2760    0.5110 c3        1 MOL     -0.076193
     26 C12        12.1780   -3.7950    0.2370 c3        1 MOL      0.096593
     27 N3         13.1600   -4.9110    0.1420 n4        1 MOL     -0.148681
     28 H8          7.5540   -1.6780    1.3980 hn        1 MOL      0.198137
     29 H9          7.6900   -2.4110   -1.5050 h1        1 MOL      0.151194
     30 H10         8.4630   -4.4260   -0.7990 hc        1 MOL     -0.002799
     31 H11         7.9380   -4.3560    0.8560 hc        1 MOL     -0.002799
     32 H12         9.7030   -2.4300    1.1620 hc        1 MOL      0.080595
     33 H13         9.9370   -2.6040   -0.6050 hc        1 MOL      0.080595
     34 H14        10.4710   -5.0520   -0.2010 hc        1 MOL      0.037152
     35 H15        10.7370   -4.7280    1.5050 hc        1 MOL      0.037152
     36 H16        12.4920   -3.1620    1.0720 hx        1 MOL      0.061755
     37 H17        12.2260   -3.1120   -0.6070 hx        1 MOL      0.061755
     38 H18        13.0410   -5.5230   -0.6530 hn        1 MOL      0.216164
     39 H19        14.1200   -4.6160    0.1280 hn        1 MOL      0.216164
     40 H20        13.0920   -5.5690    0.8970 hn        1 MOL      0.216164
     41 N4          4.9190   -2.8210   -0.0200 n         1 MOL     -0.391580
     42 C13         3.5340   -3.0620   -0.2850 c3        1 MOL      0.043705
     43 C14         3.0160   -2.6310   -1.6850 c         1 MOL      0.620779
     44 O6          3.5290   -1.8160   -2.3780 o         1 MOL     -0.503828
     45 C15         2.6070   -2.4790    0.8500 c3        1 MOL     -0.140804
     46 C16         1.2260   -3.0610    0.8520 c         1 MOL      0.609031
     47 O7          1.1350   -4.2840    0.5740 o         1 MOL     -0.664032
     48 O8          0.2560   -2.3000    1.0080 o         1 MOL     -0.664032
     49 H21         5.1420   -1.9910    0.4900 hn        1 MOL      0.218415
     50 H22         3.3560   -4.1340   -0.2830 h1        1 MOL      0.026981
     51 H23         2.6200   -1.3870    0.8310 hc        1 MOL      0.067447
     52 H24         3.0280   -2.6940    1.8330 hc        1 MOL      0.067447
     53 N5          1.9210   -3.2190   -2.1860 n         1 MOL     -0.423742
     54 C17         1.3550   -3.1030   -3.5220 c3        1 MOL     -0.259850
     55 C18         0.5360   -1.8340   -3.6840 c         1 MOL      0.393709
     56 O9          0.0390   -1.5390   -4.7810 o         1 MOL     -0.543522
     57 H25         1.3820   -3.7760   -1.5480 hn        1 MOL      0.283085
     58 H26         0.7030   -3.9210   -3.8400 h1        1 MOL      0.161163
     59 H27         2.1600   -2.9560   -4.2510 h1        1 MOL      0.161163
     60 N6          0.2290   -1.1560   -2.5930 n         1 MOL      0.022441
     61 C19        -0.7480   -0.0350   -2.5290 c3        1 MOL     -0.072002
     62 C20        -0.1870    1.3680   -2.9250 c         1 MOL      0.252750
     63 O10        -1.0230    2.2960   -3.1680 o         1 MOL     -0.419465
     64 C21        -1.3370    0.0480   -1.1070 c3        1 MOL      0.026999
     65 C22        -2.2290   -1.0620   -0.6510 c         1 MOL      0.450725
     66 N7         -3.4800   -0.8790   -0.2460 n         1 MOL     -0.495514
     67 O11        -1.9760   -2.2670   -0.9670 o         1 MOL     -0.582087
     68 H28         0.4810   -1.4710   -1.6630 hn        1 MOL      0.067232
     69 H29        -1.5480   -0.2600   -3.2490 h1        1 MOL      0.114368
     70 H30        -1.9500    0.9390   -1.0010 hc        1 MOL      0.078974
     71 H31        -0.5160    0.0540   -0.3930 hc        1 MOL      0.078974
     72 H32        -3.8120    0.0700   -0.1540 hn        1 MOL      0.258378
     73 H33        -4.0580   -1.6880   -0.0610 hn        1 MOL      0.258378
     74 N8          1.1440    1.5600   -2.9460 n         1 MOL     -0.050077
     75 C23         1.8160    2.9220   -3.1190 c3        1 MOL     -0.394133
     76 C24         1.6580    3.8080   -1.8550 c         1 MOL      0.728656
     77 O12         1.5420    5.0210   -1.9140 o         1 MOL     -0.524516
     78 H34         1.8260    0.8410   -2.7490 hn        1 MOL      0.181829
     79 H35         1.3580    3.3280   -4.0220 h1        1 MOL      0.173020
     80 H36         2.8860    2.7960   -3.2650 h1        1 MOL      0.173020
     81 N9          1.4750    3.1560   -0.6950 n         1 MOL     -0.420644
     82 C25         1.0090    3.8670    0.5000 c3        1 MOL     -0.050824
     83 C26        -0.1000    3.1060    1.3000 c         1 MOL      0.445045
     84 O13        -0.1200    1.8870    1.3670 o         1 MOL     -0.494070
     85 C27         2.2440    4.0960    1.3840 c3        1 MOL     -0.131876
     86 C28         3.3320    5.0600    0.9620 ca        1 MOL     -0.112980
     87 C29         4.6280    4.8010    1.4200 ca        1 MOL     -0.053288
     88 C30         3.1100    6.2000    0.1300 ca        1 MOL     -0.053288
     89 C31         5.6840    5.7200    1.2200 ca        1 MOL     -0.323602
     90 C32         4.1550    7.0690   -0.1860 ca        1 MOL     -0.323602
     91 C33         5.4320    6.8540    0.3370 ca        1 MOL      0.401637
     92 O14         6.4560    7.6920    0.0490 oh        1 MOL     -0.465193
     93 H37         1.3630    2.1540   -0.7300 hn        1 MOL      0.248501
     94 H38         0.6090    4.8330    0.2040 h1        1 MOL      0.097569
     95 H39         2.7800    3.1450    1.3640 hc        1 MOL      0.112771
     96 H40         2.0200    4.2330    2.4390 hc        1 MOL      0.112771
     97 H41         4.7470    3.8790    1.9710 ha        1 MOL      0.107306
     98 H42         2.1150    6.5690   -0.1010 ha        1 MOL      0.107306
     99 H43         6.6190    5.5760    1.7360 ha        1 MOL      0.152710
    100 H44         4.0370    7.9620   -0.7730 ha        1 MOL      0.152710
    101 H45         6.1630    8.4440   -0.4560 ho        1 MOL      0.346747
    102 N10        -1.1270    3.8210    1.7640 n         1 MOL     -0.261568
    103 C34        -2.4700    3.2010    2.1090 c3        1 MOL     -0.123137
    104 C35        -3.2870    2.9430    0.8220 c         1 MOL      0.518109
    105 O15        -3.9520    1.8850    0.6430 o         1 MOL     -0.570646
    106 C36        -3.1670    4.0250    3.2720 c3        1 MOL      0.126989
    107 C37        -2.3700    4.0410    4.6270 c3        1 MOL      0.130207
    108 C38        -4.4930    3.4350    3.6110 c3        1 MOL     -0.458099
    109 C39        -1.3460    5.1570    4.6440 c3        1 MOL     -0.289385
    110 H46        -1.2110    4.8260    1.6820 hn        1 MOL      0.222888
    111 H47        -2.2860    2.2340    2.5760 h1        1 MOL      0.125868
    112 H48        -3.3000    5.0650    2.9680 hc        1 MOL      0.025400
    113 H49        -1.8240    3.1100    4.7630 hc        1 MOL      0.020962
    114 H50        -3.0040    4.0470    5.5130 hc        1 MOL      0.020962
    115 H51        -4.5790    2.4180    3.2120 hc        1 MOL      0.114697
    116 H52        -4.7000    3.4120    4.6780 hc        1 MOL      0.114697
    117 H53        -5.2560    3.9850    3.0530 hc        1 MOL      0.114697
    118 H54        -0.5320    5.0560    3.9390 hc        1 MOL      0.053002
    119 H55        -1.8980    6.0710    4.4430 hc        1 MOL      0.053002
    120 H56        -0.8120    5.0370    5.5840 hc        1 MOL      0.053002
    121 N11        -3.0540    3.7340   -0.2430 n         1 MOL     -0.482186
    122 C40        -3.6430    3.5940   -1.6520 c3        1 MOL      0.099790
    123 C41        -5.1390    3.5810   -1.8140 c         1 MOL      0.257997
    124 O16        -5.6430    3.1220   -2.8590 o         1 MOL     -0.458849
    125 C42        -3.1820    4.6890   -2.6810 c3        1 MOL      0.249926
    126 O17        -1.7620    4.8140   -2.7270 oh        1 MOL     -0.628679
    127 H57        -2.6520    4.6360   -0.0510 hn        1 MOL      0.300896
    128 H58        -3.2830    2.7270   -2.2160 h1        1 MOL      0.027903
    129 H59        -3.5530    5.6520   -2.3270 h1        1 MOL      0.034138
    130 H60        -3.5550    4.5580   -3.6970 h1        1 MOL      0.034138
    131 H61        -1.3840    4.0190   -3.1200 ho        1 MOL      0.373854
    132 N12        -5.8230    3.9830   -0.7590 n         1 MOL     -0.280636
    133 C43        -7.2400    3.8130   -0.5670 c3        1 MOL      0.172209
    134 C44        -7.8580    2.4410   -0.9210 c         1 MOL      0.519297
    135 O18        -9.0510    2.3270   -1.2290 o         1 MOL     -0.526537
    136 C45        -7.9300    4.8970   -1.3240 c3        1 MOL     -0.246253
    137 H62        -5.2530    4.3950   -0.0340 hn        1 MOL      0.230666
    138 H63        -7.4780    4.0430    0.4770 h1        1 MOL      0.050120
    139 H64        -7.8610    4.7860   -2.4020 hc        1 MOL      0.070337
    140 H65        -8.9620    5.0210   -0.9850 hc        1 MOL      0.070337
    141 H66        -7.4100    5.8220   -1.0660 hc        1 MOL      0.070337
    142 N13        -7.0640    1.3170   -0.9360 n         1 MOL     -0.845956
    143 C46        -7.5290    0.0370   -1.3760 c3        1 MOL      0.848710
    144 C47        -7.3460   -0.9180   -0.1640 c         1 MOL      0.431614
    145 O19        -6.5690   -0.7110    0.7020 o         1 MOL     -0.477837
    146 C48        -6.6510   -0.4460   -2.5100 c3        1 MOL     -0.171535
    147 H67        -6.0880    1.4030   -0.7160 hn        1 MOL      0.377058
    148 H68        -8.5970   -0.0430   -1.6120 h1        1 MOL     -0.113808
    149 H69        -5.6140   -0.5600   -2.1940 hc        1 MOL      0.021282
    150 H70        -7.1140   -1.4140   -2.6950 hc        1 MOL      0.021282
    151 H71        -6.8860    0.1360   -3.3960 hc        1 MOL      0.021282
    152 N14        -8.0860   -2.0640   -0.2940 n         1 MOL     -0.583523
    153 C49        -8.1280   -3.1800    0.6050 c3        1 MOL      0.065223
    154 C50        -8.6740   -2.8620    2.0120 c         1 MOL      0.354708
    155 O20        -8.6550   -3.6040    2.9450 o         1 MOL     -0.503771
    156 C51        -6.7730   -3.9190    0.6410 c3        1 MOL      0.062290
    157 C52        -6.1810   -4.2520   -0.7800 c3        1 MOL     -0.116097
    158 C53        -5.0390   -5.2220   -0.5880 c         1 MOL      0.655185
    159 O21        -5.2170   -6.3630   -0.1720 o         1 MOL     -0.698813
    160 O22        -3.8730   -4.7240   -0.6290 o         1 MOL     -0.698813
    161 H72        -8.6790   -2.0870   -1.1080 hn        1 MOL      0.306976
    162 H73        -8.8690   -3.8630    0.1900 h1        1 MOL      0.084562
    163 H74        -6.8070   -4.8150    1.2690 hc        1 MOL      0.028175
    164 H75        -6.1370   -3.1890    1.1370 hc        1 MOL      0.028175
    165 H76        -5.7750   -3.3110   -1.1740 hc        1 MOL      0.001214
    166 H77        -7.0480   -4.6190   -1.3310 hc        1 MOL      0.001214
    167 N15        -9.1820   -1.6470    2.1870 n         1 MOL     -0.182329
    168 C54        -9.4490   -0.9250    3.4720 c3        1 MOL     -0.108395
    169 H78        -8.9940   -1.4720    4.2980 h1        1 MOL      0.080656
    170 H79        -9.0240    0.0760    3.4220 h1        1 MOL      0.080656
    171 H80       -10.5250   -0.8550    3.6330 h1        1 MOL      0.080656
    172 H81        -9.2380   -1.1930    1.2880 hn        1 MOL      0.144849
    173 Ca1        -1.6160   -4.5090    0.6650 Ca        1 MOL      1.714427
    174 O23        -3.6460   -5.9270    1.9080 oh        1 MOL     -0.843721
    175 H82        -4.1840   -5.8810    1.1210 ho        1 MOL      0.415497
    176 H83        -4.0280   -6.6520    2.4110 ho        1 MOL      0.415497
    177 O24        -2.8940   -2.8270    2.4800 oh        1 MOL     -0.843721
    178 H84        -3.7920   -2.5910    2.7060 ho        1 MOL      0.415497
    179 H85        -2.4090   -1.9960    2.5090 ho        1 MOL      0.415497
    180 O25        -1.2230   -7.0920    0.3840 oh        1 MOL     -0.843721
    181 H86        -1.8840   -7.6070   -0.0750 ho        1 MOL      0.415497
    182 H87        -0.8170   -7.7120    0.9870 ho        1 MOL      0.415497
    183 O26        -0.8540   -5.0920   -2.0850 oh        1 MOL     -0.843721
    184 H88        -1.5370   -4.6730   -2.6110 ho        1 MOL      0.415497
    185 H89        -0.7310   -5.9540   -2.4780 ho        1 MOL      0.415497
    186 O27        -0.6140   -5.5140    2.9990 oh        1 MOL     -0.843721
    187 H90        -1.2440   -5.9620    3.5720 ho        1 MOL      0.415497
    188 H91         0.2220   -5.5860    3.4750 ho        1 MOL      0.415497
@<TRIPOS>BOND
     1    1    2 1   
     2    1    4 1   
     3    1    5 1   
     4    1    6 1   
     5    2    3 2   
     6    2    7 1   
     7    7    8 1   
     8    7   15 1   
     9    8    9 1   
    10    8   11 1   
    11    8   16 1   
    12    9   10 2   
    13    9   19 1   
    14   11   12 1   
    15   11   17 1   
    16   11   18 1   
    17   12   13 1   
    18   12   14 1   
    19   19   20 1   
    20   19   28 1   
    21   20   21 1   
    22   20   23 1   
    23   20   29 1   
    24   21   22 2   
    25   21   41 1   
    26   23   24 1   
    27   23   30 1   
    28   23   31 1   
    29   24   25 1   
    30   24   32 1   
    31   24   33 1   
    32   25   26 1   
    33   25   34 1   
    34   25   35 1   
    35   26   27 1   
    36   26   36 1   
    37   26   37 1   
    38   27   38 1   
    39   27   39 1   
    40   27   40 1   
    41   41   42 1   
    42   41   49 1   
    43   42   43 1   
    44   42   45 1   
    45   42   50 1   
    46   43   44 2   
    47   43   53 1   
    48   45   46 1   
    49   45   51 1   
    50   45   52 1   
    51   46   47 1   
    52   46   48 1   
    53   53   54 1   
    54   53   57 1   
    55   54   55 1   
    56   54   58 1   
    57   54   59 1   
    58   55   56 2   
    59   55   60 1   
    60   60   61 1   
    61   60   68 1   
    62   61   62 1   
    63   61   64 1   
    64   61   69 1   
    65   62   63 2   
    66   62   74 1   
    67   64   65 1   
    68   64   70 1   
    69   64   71 1   
    70   65   66 1   
    71   65   67 2   
    72   66   72 1   
    73   66   73 1   
    74   74   75 1   
    75   74   78 1   
    76   75   76 1   
    77   75   79 1   
    78   75   80 1   
    79   76   77 2   
    80   76   81 1   
    81   81   82 1   
    82   81   93 1   
    83   82   83 1   
    84   82   85 1   
    85   82   94 1   
    86   83   84 2   
    87   83  102 1   
    88   85   86 1   
    89   85   95 1   
    90   85   96 1   
    91   86   87 ar  
    92   86   88 ar  
    93   87   89 ar  
    94   87   97 1   
    95   88   90 ar  
    96   88   98 1   
    97   89   91 ar  
    98   89   99 1   
    99   90   91 ar  
   100   90  100 1   
   101   91   92 1   
   102   92  101 1   
   103  102  103 1   
   104  102  110 1   
   105  103  104 1   
   106  103  106 1   
   107  103  111 1   
   108  104  105 2   
   109  104  121 1   
   110  106  107 1   
   111  106  108 1   
   112  106  112 1   
   113  107  109 1   
   114  107  113 1   
   115  107  114 1   
   116  108  115 1   
   117  108  116 1   
   118  108  117 1   
   119  109  118 1   
   120  109  119 1   
   121  109  120 1   
   122  121  122 1   
   123  121  127 1   
   124  122  123 1   
   125  122  125 1   
   126  122  128 1   
   127  123  124 2   
   128  123  132 1   
   129  125  126 1   
   130  125  129 1   
   131  125  130 1   
   132  126  131 1   
   133  132  133 1   
   134  132  137 1   
   135  133  134 1   
   136  133  136 1   
   137  133  138 1   
   138  134  135 2   
   139  134  142 1   
   140  136  139 1   
   141  136  140 1   
   142  136  141 1   
   143  142  143 1   
   144  142  147 1   
   145  143  144 1   
   146  143  146 1   
   147  143  148 1   
   148  144  145 2   
   149  144  152 1   
   150  146  149 1   
   151  146  150 1   
   152  146  151 1   
   153  152  153 1   
   154  152  161 1   
   155  153  154 1   
   156  153  156 1   
   157  153  162 1   
   158  154  155 2   
   159  154  167 1   
   160  156  157 1   
   161  156  163 1   
   162  156  164 1   
   163  157  158 1   
   164  157  165 1   
   165  157  166 1   
   166  158  159 1   
   167  158  160 1   
   168  167  168 1   
   169  167  172 1   
   170  168  169 1   
   171  168  170 1   
   172  168  171 1   
   173  174  175 1   
   174  174  176 1   
   175  177  178 1   
   176  177  179 1   
   177  180  181 1   
   178  180  182 1   
   179  183  184 1   
   180  183  185 1   
   181  186  187 1   
   182  186  188 1   
@<TRIPOS>SUBSTRUCTURE
     1 MOL         1 TEMP              0 ****  ****    0 ROOT
