@<TRIPOS>MOLECULE
MOL
  192   187     1     0     0
SMALL
resp


@<TRIPOS>ATOM
      1 C1          4.6030    3.7030   -3.7820 c3        1 MOL     -0.366694
      2 C2          5.4770    3.0510   -2.6950 c         1 MOL      0.807907
      3 O1          4.9440    2.8560   -1.6100 o         1 MOL     -0.680052
      4 H1          4.0830    2.9270   -4.3430 hc        1 MOL      0.081977
      5 H2          3.8730    4.3630   -3.3140 hc        1 MOL      0.081977
      6 H3          5.2340    4.2790   -4.4590 hc        1 MOL      0.081977
      7 N1          6.6280    2.5580   -3.0310 n         1 MOL     -0.730642
      8 C3          7.2910    1.4210   -2.4070 c3        1 MOL      0.371513
      9 C4          6.3340    0.3410   -2.0000 c         1 MOL      0.293958
     10 O2          5.9890    0.2020   -0.8180 o         1 MOL     -0.482754
     11 C5          8.3220    1.8250   -1.3270 c3        1 MOL     -0.297724
     12 C6          7.8160    2.7690   -0.3420 c         1 MOL      0.835053
     13 O3          7.3470    2.3980    0.7420 o         1 MOL     -0.754907
     14 O4          7.9130    4.0100   -0.5510 o         1 MOL     -0.754907
     15 H4          7.0460    3.0100   -3.8300 hn        1 MOL      0.352912
     16 H5          7.8530    1.0310   -3.2510 h1        1 MOL     -0.012071
     17 H6          9.1180    2.2560   -1.9360 hc        1 MOL      0.056413
     18 H7          8.6150    0.9090   -0.8120 hc        1 MOL      0.056413
     19 N2          5.7520   -0.3170   -2.9780 n         1 MOL     -0.372697
     20 C7          4.8720   -1.4760   -2.8130 c3        1 MOL      0.043580
     21 C8          5.5010   -2.7370   -2.1550 c         1 MOL      0.424704
     22 O5          5.6950   -3.7140   -2.8670 o         1 MOL     -0.547389
     23 C9          3.4120   -1.1300   -2.3940 c3        1 MOL      0.192307
     24 C10         2.5590   -2.3980   -2.5900 c3        1 MOL     -0.054088
     25 C11         2.9170    0.1170   -3.1400 c3        1 MOL     -0.044905
     26 C12         2.3640   -2.8020   -4.0490 c3        1 MOL     -0.262287
     27 H8          5.9920    0.0330   -3.8990 hn        1 MOL      0.264631
     28 H9          4.7140   -1.6890   -3.8770 h1        1 MOL      0.016647
     29 H10         3.4790   -0.9420   -1.3250 hc        1 MOL     -0.112022
     30 H11         1.6080   -2.2370   -2.0830 hc        1 MOL      0.061973
     31 H12         3.0000   -3.2930   -2.1390 hc        1 MOL      0.061973
     32 H13         3.3810    0.9540   -2.6270 hc        1 MOL      0.005860
     33 H14         3.2250    0.2060   -4.1760 hc        1 MOL      0.005860
     34 H15         1.8240    0.1570   -3.1160 hc        1 MOL      0.005860
     35 H16         1.7530   -3.7060   -4.0050 hc        1 MOL      0.059024
     36 H17         1.8030   -2.0320   -4.5680 hc        1 MOL      0.059024
     37 H18         3.1720   -3.1680   -4.6850 hc        1 MOL      0.059024
     38 N3          5.7880   -2.6690   -0.8520 n         1 MOL     -0.060045
     39 C13         6.2160   -3.8940   -0.1560 c3        1 MOL     -0.107175
     40 C14         5.2710   -5.0780   -0.1340 c         1 MOL      0.618962
     41 O6          5.6170   -6.2100   -0.4210 o         1 MOL     -0.602968
     42 C15         6.9640   -3.6300    1.2180 c3        1 MOL     -0.251378
     43 C16         8.0050   -2.4510    1.1230 c         1 MOL      0.773714
     44 O7          8.8930   -2.2940    0.2860 o         1 MOL     -0.704897
     45 O8          7.9390   -1.6810    2.0870 o         1 MOL     -0.704897
     46 H19         5.5740   -1.8240   -0.3310 hn        1 MOL      0.149250
     47 H20         6.9290   -4.2700   -0.8890 h1        1 MOL      0.065166
     48 H21         7.6500   -4.4510    1.4220 hc        1 MOL      0.061152
     49 H22         6.3490   -3.5370    2.1110 hc        1 MOL      0.061152
     50 N4          4.0780   -4.9670    0.3950 n         1 MOL     -0.492904
     51 C17         3.4260   -3.8030    0.9880 c3        1 MOL      0.095857
     52 C18         2.0750   -4.2090    1.7090 c         1 MOL      0.530545
     53 O9          1.5670   -5.2810    1.3590 o         1 MOL     -0.550805
     54 H23         3.5600   -5.8340    0.3650 hn        1 MOL      0.267901
     55 H24         3.2680   -3.0400    0.2270 h1        1 MOL      0.067569
     56 H25         4.1380   -3.5160    1.7550 h1        1 MOL      0.067569
     57 N5          1.4390   -3.4200    2.6280 n         1 MOL     -0.577253
     58 C19         2.0110   -2.1480    3.0350 c3        1 MOL      0.475926
     59 C20         2.2400   -1.0450    2.0250 c         1 MOL      0.342949
     60 O10         3.4240   -0.6790    1.8300 o         1 MOL     -0.546151
     61 C21         3.0650   -2.3540    4.1170 c3        1 MOL     -0.512843
     62 C22         3.3630   -1.2050    5.0430 c         1 MOL      0.778684
     63 O11         2.7690   -0.1580    4.8480 o         1 MOL     -0.709964
     64 O12         4.1350   -1.3230    6.0550 o         1 MOL     -0.709964
     65 H26         0.5960   -3.7320    3.0730 hn        1 MOL      0.307802
     66 H27         1.2920   -1.6710    3.7070 h1        1 MOL     -0.000710
     67 H28         4.0300   -2.7200    3.7540 hc        1 MOL      0.087765
     68 H29         2.6960   -3.2340    4.6480 hc        1 MOL      0.087765
     69 N6          1.2210   -0.5540    1.3210 n         1 MOL     -0.194840
     70 C23        -0.1700   -0.8300    1.4720 c3        1 MOL     -0.098123
     71 C24        -0.5830   -2.1500    0.7880 c         1 MOL      0.215164
     72 O13         0.0740   -2.6330   -0.1570 o         1 MOL     -0.410493
     73 H30         1.5270    0.1640    0.6800 hn        1 MOL      0.175011
     74 H31        -0.7280   -0.0330    0.9800 h1        1 MOL      0.082807
     75 H32        -0.4130   -0.8040    2.5250 h1        1 MOL      0.082807
     76 N7         -1.6980   -2.7640    1.2510 n         1 MOL     -0.292782
     77 C25        -2.2420   -4.0860    0.8280 c3        1 MOL     -0.015045
     78 C26        -2.9160   -4.1580   -0.5680 c         1 MOL      0.370060
     79 O14        -3.2940   -5.1860   -1.1230 o         1 MOL     -0.510058
     80 C27        -3.3350   -4.4980    1.8890 c3        1 MOL      0.137582
     81 C28        -4.7060   -3.7480    1.8860 c3        1 MOL     -0.116072
     82 C29        -4.5520   -2.3090    1.8940 c         1 MOL      0.647752
     83 N8         -4.2320   -1.8170    3.0650 n         1 MOL     -0.781974
     84 O15        -4.5260   -1.5370    0.9360 o         1 MOL     -0.535114
     85 H33        -2.0090   -2.3510    2.1210 hn        1 MOL      0.219837
     86 H34        -1.3910   -4.7560    0.9090 h1        1 MOL      0.117357
     87 H35        -2.8620   -4.4000    2.8660 hc        1 MOL     -0.021152
     88 H36        -3.4660   -5.5760    1.7680 hc        1 MOL     -0.021152
     89 H37        -5.2100   -4.0980    2.7810 hc        1 MOL      0.047681
     90 H38        -5.3350   -4.0290    1.0440 hc        1 MOL      0.047681
     91 H39        -4.3120   -2.3470    3.9120 hn        1 MOL      0.376711
     92 H40        -3.8160   -0.8930    3.0870 hn        1 MOL      0.376711
     93 N9         -3.0870   -2.9790   -1.1940 n         1 MOL     -0.070574
     94 C30        -3.4840   -2.8520   -2.6060 c3        1 MOL     -0.052346
     95 C31        -4.9600   -2.4330   -2.7970 c         1 MOL      0.389022
     96 O16        -5.4200   -2.4950   -3.9430 o         1 MOL     -0.559672
     97 C32        -2.6420   -1.9000   -3.5280 c3        1 MOL      0.160868
     98 C33        -1.3420   -2.5940   -3.8630 c3        1 MOL     -0.087990
     99 C34        -2.5460   -0.5210   -2.8370 c3        1 MOL     -0.087990
    100 H41        -2.5620   -2.1960   -0.8130 hn        1 MOL      0.222985
    101 H42        -3.4060   -3.8400   -3.0690 h1        1 MOL      0.081900
    102 H43        -3.1940   -1.8350   -4.4720 hc        1 MOL      0.014498
    103 H44        -1.5000   -3.4620   -4.4900 hc        1 MOL      0.005190
    104 H45        -0.7120   -1.9760   -4.5000 hc        1 MOL      0.005190
    105 H46        -0.7610   -2.7460   -2.9540 hc        1 MOL      0.005190
    106 H47        -2.2440    0.2130   -3.5810 hc        1 MOL      0.005190
    107 H48        -3.5400   -0.2630   -2.4890 hc        1 MOL      0.005190
    108 H49        -1.7940   -0.5240   -2.0420 hc        1 MOL      0.005190
    109 N10        -5.6310   -1.8500   -1.7770 n         1 MOL     -0.052255
    110 C35        -7.0220   -1.3120   -1.8440 c3        1 MOL      0.034242
    111 C36        -6.9430    0.2120   -1.4380 c         1 MOL      0.518112
    112 O17        -7.8990    0.9280   -1.6480 o         1 MOL     -0.546622
    113 C37        -7.9350   -2.1970   -0.9370 c3        1 MOL     -0.176685
    114 C38        -8.2540   -3.6510   -1.2510 c         1 MOL      0.579035
    115 N11        -8.7100   -3.8960   -2.4570 n         1 MOL     -0.719043
    116 O18        -8.0240   -4.5280   -0.4370 o         1 MOL     -0.545021
    117 H50        -5.1670   -1.7490   -0.8890 hn        1 MOL     -0.048903
    118 H51        -7.3750   -1.2480   -2.8650 h1        1 MOL      0.057345
    119 H52        -8.9160   -1.7330   -0.8800 hc        1 MOL      0.080797
    120 H53        -7.5320   -2.1320    0.0780 hc        1 MOL      0.080797
    121 H54        -8.7620   -3.2220   -3.2050 hn        1 MOL      0.344445
    122 H55        -9.0680   -4.8300   -2.5760 hn        1 MOL      0.344445
    123 N12        -5.8530    0.6580   -0.7940 n         1 MOL     -0.461143
    124 C39        -5.9070    2.0090   -0.1940 c3        1 MOL      0.386850
    125 C40        -4.4630    2.6590   -0.1630 c         1 MOL      0.267328
    126 O19        -3.4450    2.0030   -0.0400 o         1 MOL     -0.379752
    127 C41        -6.4580    1.9760    1.2320 c3        1 MOL     -0.209995
    128 C42        -7.7390    1.2190    1.4380 ca        1 MOL     -0.040250
    129 C43        -8.9680    1.7910    1.2160 ca        1 MOL     -0.070162
    130 C44        -7.6480   -0.1140    1.9060 ca        1 MOL     -0.070162
    131 C45       -10.1300    1.1630    1.5270 ca        1 MOL     -0.259099
    132 C46        -8.8620   -0.7730    2.1120 ca        1 MOL     -0.259099
    133 C47       -10.0970   -0.1420    2.0370 ca        1 MOL      0.330185
    134 O20       -11.2210   -0.8320    2.5390 oh        1 MOL     -0.528025
    135 H56        -5.0250    0.0980   -0.6290 hn        1 MOL      0.228974
    136 H57        -6.5610    2.6180   -0.8160 h1        1 MOL     -0.007594
    137 H58        -6.6610    3.0120    1.4960 hc        1 MOL      0.101869
    138 H59        -5.6450    1.6950    1.9010 hc        1 MOL      0.101869
    139 H60        -9.0710    2.8320    0.9400 ha        1 MOL      0.109354
    140 H61        -6.6460   -0.4940    2.0190 ha        1 MOL      0.109354
    141 H62       -11.1010    1.6280    1.5060 ha        1 MOL      0.119750
    142 H63        -8.8880   -1.8060    2.4470 ha        1 MOL      0.119750
    143 H64       -12.0410   -0.3720    2.3620 ho        1 MOL      0.372073
    144 N13        -4.5200    4.0290   -0.0240 n         1 MOL     -0.584964
    145 C48        -3.4650    4.9540    0.4220 c3        1 MOL      0.165251
    146 C49        -2.1510    5.0230   -0.3410 c         1 MOL      0.252249
    147 O21        -1.5380    6.0610   -0.4690 o         1 MOL     -0.497014
    148 C50        -3.2570    4.7480    1.9610 c3        1 MOL     -0.073364
    149 C51        -2.3090    5.7230    2.7110 c3        1 MOL     -0.227180
    150 C52        -1.9790    5.3750    4.1350 c         1 MOL      0.708877
    151 O22        -1.2490    4.3530    4.3810 o         1 MOL     -0.727335
    152 O23        -2.3390    6.1110    5.0970 o         1 MOL     -0.727335
    153 H65        -5.4140    4.4260   -0.2850 hn        1 MOL      0.317615
    154 H66        -3.8170    5.9790    0.2740 h1        1 MOL      0.061998
    155 H67        -2.9080    3.7340    2.1610 hc        1 MOL      0.030345
    156 H68        -4.1880    4.8820    2.4980 hc        1 MOL      0.030345
    157 H69        -2.8110    6.6880    2.7540 hc        1 MOL      0.040413
    158 H70        -1.3850    5.8740    2.1600 hc        1 MOL      0.040413
    159 N14        -1.7720    3.9240   -0.9890 n         1 MOL      0.021394
    160 C53        -0.6910    4.0240   -1.9940 c3        1 MOL     -0.097597
    161 C54        -1.1730    4.6240   -3.2870 c         1 MOL      0.552792
    162 O24        -0.4520    5.3910   -3.9410 o         1 MOL     -0.552506
    163 C55        -0.1510    2.6000   -2.2300 c3        1 MOL     -0.052341
    164 C56         0.2830    1.8770   -0.9060 c3        1 MOL      0.268532
    165 C57         1.4550    2.4490   -0.1220 c         1 MOL      0.645882
    166 O25         2.4260    1.7080    0.1100 o         1 MOL     -0.644234
    167 O26         1.4120    3.6520    0.2390 o         1 MOL     -0.644234
    168 H71        -2.2190    3.0720   -0.6780 hn        1 MOL      0.161386
    169 H72         0.1120    4.6870   -1.6660 h1        1 MOL      0.140886
    170 H73         0.7540    2.7300   -2.8330 hc        1 MOL     -0.020077
    171 H74        -0.8910    2.0070   -2.7750 hc        1 MOL     -0.020077
    172 H75         0.4510    0.8060   -1.0580 hc        1 MOL     -0.063499
    173 H76        -0.5640    1.7620   -0.2300 hc        1 MOL     -0.063499
    174 N15        -2.4720    4.4640   -3.6630 n         1 MOL     -0.312725
    175 C58        -3.2020    5.2490   -4.6830 c3        1 MOL     -0.245947
    176 H77        -3.9670    4.6230   -5.1440 h1        1 MOL      0.104575
    177 H78        -3.6750    6.1090   -4.2090 h1        1 MOL      0.104575
    178 H79        -2.5040    5.5920   -5.4470 h1        1 MOL      0.104575
    179 H80        -3.0220    3.8750   -3.0470 hn        1 MOL      0.203307
    180 Ca1         4.8490    1.8180    1.1220 Ca        1 MOL      1.771602
    181 O27         2.8700    2.0410    3.1450 oh        1 MOL     -0.823928
    182 O28         5.4630    3.4420    3.3260 oh        1 MOL     -0.823928
    183 H81         2.5920    1.2720    3.6400 ho        1 MOL      0.394058
    184 H82         4.5470    3.7210    3.3080 ho        1 MOL      0.394058
    185 H83         2.2610    2.7240    3.4160 ho        1 MOL      0.394058
    186 H84         5.8190    3.8590    4.1140 ho        1 MOL      0.394058
    187 O29         6.2890    0.1800    2.8740 oh        1 MOL     -0.823928
    188 H85         6.9190   -0.4010    2.4530 ho        1 MOL      0.394058
    189 H86         5.8500   -0.3790    3.5210 ho        1 MOL      0.394058
    190 O30         3.9360    4.2770    0.8910 oh        1 MOL     -0.823928
    191 H87         4.1980    5.0890    0.4500 ho        1 MOL      0.394058
    192 H88         2.9930    4.1970    0.7140 ho        1 MOL      0.394058
@<TRIPOS>BOND
     1    1    2 1   
     2    1    4 1   
     3    1    5 1   
     4    1    6 1   
     5    2    3 2   
     6    2    7 1   
     7    7    8 1   
     8    7   15 1   
     9    8    9 1   
    10    8   11 1   
    11    8   16 1   
    12    9   10 2   
    13    9   19 1   
    14   11   12 1   
    15   11   17 1   
    16   11   18 1   
    17   12   13 1   
    18   12   14 1   
    19   19   20 1   
    20   19   27 1   
    21   20   21 1   
    22   20   23 1   
    23   20   28 1   
    24   21   22 2   
    25   21   38 1   
    26   23   24 1   
    27   23   25 1   
    28   23   29 1   
    29   24   26 1   
    30   24   30 1   
    31   24   31 1   
    32   25   32 1   
    33   25   33 1   
    34   25   34 1   
    35   26   35 1   
    36   26   36 1   
    37   26   37 1   
    38   38   39 1   
    39   38   46 1   
    40   39   40 1   
    41   39   42 1   
    42   39   47 1   
    43   40   41 2   
    44   40   50 1   
    45   42   43 1   
    46   42   48 1   
    47   42   49 1   
    48   43   44 1   
    49   43   45 1   
    50   50   51 1   
    51   50   54 1   
    52   51   52 1   
    53   51   55 1   
    54   51   56 1   
    55   52   53 2   
    56   52   57 1   
    57   57   58 1   
    58   57   65 1   
    59   58   59 1   
    60   58   61 1   
    61   58   66 1   
    62   59   60 2   
    63   59   69 1   
    64   61   62 1   
    65   61   67 1   
    66   61   68 1   
    67   62   63 1   
    68   62   64 1   
    69   69   70 1   
    70   69   73 1   
    71   70   71 1   
    72   70   74 1   
    73   70   75 1   
    74   71   72 2   
    75   71   76 1   
    76   76   77 1   
    77   76   85 1   
    78   77   78 1   
    79   77   80 1   
    80   77   86 1   
    81   78   79 2   
    82   78   93 1   
    83   80   81 1   
    84   80   87 1   
    85   80   88 1   
    86   81   82 1   
    87   81   89 1   
    88   81   90 1   
    89   82   83 1   
    90   82   84 2   
    91   83   91 1   
    92   83   92 1   
    93   93   94 1   
    94   93  100 1   
    95   94   95 1   
    96   94   97 1   
    97   94  101 1   
    98   95   96 2   
    99   95  109 1   
   100   97   98 1   
   101   97   99 1   
   102   97  102 1   
   103   98  103 1   
   104   98  104 1   
   105   98  105 1   
   106   99  106 1   
   107   99  107 1   
   108   99  108 1   
   109  109  110 1   
   110  109  117 1   
   111  110  111 1   
   112  110  113 1   
   113  110  118 1   
   114  111  112 2   
   115  111  123 1   
   116  113  114 1   
   117  113  119 1   
   118  113  120 1   
   119  114  115 1   
   120  114  116 2   
   121  115  121 1   
   122  115  122 1   
   123  123  124 1   
   124  123  135 1   
   125  124  125 1   
   126  124  127 1   
   127  124  136 1   
   128  125  126 2   
   129  125  144 1   
   130  127  128 1   
   131  127  137 1   
   132  127  138 1   
   133  128  129 ar  
   134  128  130 ar  
   135  129  131 ar  
   136  129  139 1   
   137  130  132 ar  
   138  130  140 1   
   139  131  133 ar  
   140  131  141 1   
   141  132  133 ar  
   142  132  142 1   
   143  133  134 1   
   144  134  143 1   
   145  144  145 1   
   146  144  153 1   
   147  145  146 1   
   148  145  148 1   
   149  145  154 1   
   150  146  147 2   
   151  146  159 1   
   152  148  149 1   
   153  148  155 1   
   154  148  156 1   
   155  149  150 1   
   156  149  157 1   
   157  149  158 1   
   158  150  151 1   
   159  150  152 1   
   160  159  160 1   
   161  159  168 1   
   162  160  161 1   
   163  160  163 1   
   164  160  169 1   
   165  161  162 2   
   166  161  174 1   
   167  163  164 1   
   168  163  170 1   
   169  163  171 1   
   170  164  165 1   
   171  164  172 1   
   172  164  173 1   
   173  165  166 1   
   174  165  167 1   
   175  174  175 1   
   176  174  179 1   
   177  175  176 1   
   178  175  177 1   
   179  175  178 1   
   180  181  183 1   
   181  181  185 1   
   182  182  184 1   
   183  182  186 1   
   184  187  188 1   
   185  187  189 1   
   186  190  191 1   
   187  190  192 1   
@<TRIPOS>SUBSTRUCTURE
     1 MOL         1 TEMP              0 ****  ****    0 ROOT
