@<TRIPOS>MOLECULE
MOL
  192   187     1     0     0
SMALL
resp


@<TRIPOS>ATOM
      1 C1          5.2600    0.3440    6.3550 c3        1 MOL     -0.188884
      2 C2          4.9950    0.4340    4.8490 c         1 MOL      0.819033
      3 O1          4.6360    1.4790    4.3680 o         1 MOL     -0.618657
      4 H1          6.3260    0.4680    6.5450 hc        1 MOL      0.033687
      5 H2          4.7050    1.1290    6.8710 hc        1 MOL      0.033687
      6 H3          4.9370   -0.6310    6.7230 hc        1 MOL      0.033687
      7 N1          5.1630   -0.6960    4.1790 n         1 MOL     -0.646570
      8 C3          5.1270   -0.8210    2.7020 c3        1 MOL      0.425778
      9 C4          3.6430   -0.7550    2.0700 c         1 MOL      0.013171
     10 O2          3.5460   -1.0230    0.8720 o         1 MOL     -0.260809
     11 C5          5.8940   -2.0420    2.0480 c3        1 MOL     -0.071376
     12 C6          7.1530   -2.5800    2.6590 c         1 MOL      0.688457
     13 O3          7.2350   -2.7170    3.9200 o         1 MOL     -0.713164
     14 O4          8.1530   -2.7220    1.9050 o         1 MOL     -0.713164
     15 H4          5.4980   -1.5550    4.5880 hn        1 MOL      0.270539
     16 H5          5.6150    0.0970    2.3740 h1        1 MOL      0.014650
     17 H6          6.0410   -1.8950    0.9760 hc        1 MOL     -0.058976
     18 H7          5.1780   -2.8570    2.1450 hc        1 MOL     -0.058976
     19 N2          2.6110   -0.3130    2.8050 n         1 MOL     -0.229869
     20 C7          1.1550   -0.2390    2.2560 c3        1 MOL      0.012589
     21 C8          0.6640    1.1580    2.2980 c         1 MOL      0.465084
     22 O5          1.0650    1.8910    3.1860 o         1 MOL     -0.479687
     23 C9          0.2620   -1.0750    3.1360 c3        1 MOL     -0.093117
     24 C10         0.4170   -2.6150    2.9750 c3        1 MOL     -0.024019
     25 C11        -0.3840   -3.4520    3.9270 c3        1 MOL     -0.053616
     26 C12        -0.1430   -4.9720    3.8350 c3        1 MOL      0.216101
     27 N3         -0.4120   -5.6690    5.1120 n4        1 MOL     -0.521753
     28 H8          2.8740   -0.0320    3.7400 hn        1 MOL      0.212442
     29 H9          1.1100   -0.6680    1.2520 h1        1 MOL      0.415278
     30 H10        -0.7970   -0.9170    2.9620 hc        1 MOL      0.037291
     31 H11         0.5320   -0.8160    4.1610 hc        1 MOL      0.037291
     32 H12         1.4200   -2.9180    3.2820 hc        1 MOL      0.009338
     33 H13         0.2530   -2.8530    1.9220 hc        1 MOL      0.009338
     34 H14        -1.4540   -3.3010    3.8190 hc        1 MOL      0.029019
     35 H15        -0.1420   -3.0770    4.9290 hc        1 MOL      0.029019
     36 H16         0.8500   -5.1910    3.4550 hx        1 MOL      0.035301
     37 H17        -0.8090   -5.3800    3.0830 hx        1 MOL      0.035301
     38 H18         0.1010   -5.1870    5.8330 hn        1 MOL      0.370932
     39 H19        -1.4000   -5.7060    5.3050 hn        1 MOL      0.370932
     40 H20        -0.1920   -6.6390    4.9610 hn        1 MOL      0.370932
     41 N4         -0.0290    1.6660    1.3130 n         1 MOL     -0.507513
     42 C13        -0.6520    1.0180    0.0960 c3        1 MOL      0.017596
     43 C14        -1.4060   -0.2780    0.3930 c         1 MOL      0.644497
     44 O6         -0.8800   -1.3350    0.0160 o         1 MOL     -0.609021
     45 C15         0.3580    0.8150   -1.0940 c3        1 MOL     -0.566805
     46 C16         0.5940    2.1070   -1.7870 c         1 MOL      0.820755
     47 O7          1.1660    2.0920   -2.8970 o         1 MOL     -0.689313
     48 O8          0.2340    3.1880   -1.2740 o         1 MOL     -0.689313
     49 H21         0.0450    2.6770    1.2940 hn        1 MOL      0.255285
     50 H22        -1.3950    1.6930   -0.3250 h1        1 MOL     -0.057320
     51 H23        -0.1770    0.2020   -1.8220 hc        1 MOL      0.218791
     52 H24         1.2660    0.4400   -0.6230 hc        1 MOL      0.218791
     53 N5         -2.5580   -0.3120    1.0960 n         1 MOL     -0.123899
     54 C17        -3.4350    0.8100    1.6240 c3        1 MOL     -0.130736
     55 C18        -4.2970    0.3050    2.7530 c         1 MOL      0.471926
     56 O9         -4.2180   -0.8460    3.1700 o         1 MOL     -0.521542
     57 H25        -2.9650   -1.2000    1.3870 hn        1 MOL      0.179284
     58 H26        -3.9950    1.1770    0.7650 h1        1 MOL      0.088700
     59 H27        -2.8580    1.6820    1.9400 h1        1 MOL      0.088700
     60 N6         -5.2760    1.0560    3.2250 n         1 MOL     -0.435706
     61 C19        -5.8030    2.2760    2.5770 c3        1 MOL      0.120375
     62 C20        -6.8890    2.0920    1.5240 c         1 MOL      0.398778
     63 O10        -7.8770    1.3900    1.7570 o         1 MOL     -0.461703
     64 C21        -6.3030    3.2980    3.6450 c3        1 MOL     -0.080392
     65 C22        -7.1770    2.7300    4.7670 c         1 MOL      0.669393
     66 O11        -7.3080    1.5210    5.1300 o         1 MOL     -0.654406
     67 O12        -7.7040    3.7120    5.3950 o         1 MOL     -0.654406
     68 H28        -5.8150    0.6660    3.9860 hn        1 MOL      0.311980
     69 H29        -5.0280    2.8010    2.0280 h1        1 MOL     -0.044350
     70 H30        -6.7590    4.1390    3.1380 hc        1 MOL      0.009169
     71 H31        -5.3800    3.7060    4.0680 hc        1 MOL      0.009169
     72 N7         -6.6830    2.7380    0.3870 n         1 MOL     -0.155200
     73 C23        -7.6220    2.7260   -0.7600 c3        1 MOL     -0.333821
     74 C24        -7.4740    1.4470   -1.6350 c         1 MOL      0.594780
     75 O13        -8.4600    0.9930   -2.1910 o         1 MOL     -0.518405
     76 H32        -5.9480    3.4190    0.2770 hn        1 MOL      0.183120
     77 H33        -7.4340    3.5820   -1.3960 h1        1 MOL      0.155189
     78 H34        -8.6100    2.7890   -0.2930 h1        1 MOL      0.155189
     79 N8         -6.2460    1.0060   -1.8580 n         1 MOL     -0.478743
     80 C25        -5.9370   -0.2020   -2.6190 c3        1 MOL      0.033049
     81 C26        -4.9300   -1.1340   -1.9640 c         1 MOL      0.347510
     82 O14        -3.8060   -0.6590   -1.7150 o         1 MOL     -0.516484
     83 C27        -5.4540    0.0850   -4.0500 c3        1 MOL      0.446146
     84 C28        -6.0920    1.3250   -4.6990 c3        1 MOL     -0.376481
     85 O15        -5.7540   -0.9550   -4.9800 oh        1 MOL     -0.665958
     86 H35        -5.5010    1.4960   -1.3890 hn        1 MOL      0.256797
     87 H36        -6.8370   -0.8120   -2.7480 h1        1 MOL      0.115074
     88 H37        -4.3740    0.1010   -4.1450 h1        1 MOL     -0.032288
     89 H38        -5.3660   -0.6070   -5.7890 ho        1 MOL      0.403499
     90 H39        -7.0590    1.5790   -4.2670 hc        1 MOL      0.090987
     91 H40        -5.3740    2.1300   -4.6160 hc        1 MOL      0.090987
     92 H41        -6.3200    1.2200   -5.7680 hc        1 MOL      0.090987
     93 N9         -5.3250   -2.3130   -1.5270 n         1 MOL     -0.234506
     94 C29        -4.5540   -3.1260   -0.5880 c3        1 MOL      0.012624
     95 C30        -3.5530   -4.0460   -1.4180 c         1 MOL      0.423390
     96 O16        -3.8860   -5.1550   -1.8120 o         1 MOL     -0.483372
     97 C31        -5.3290   -3.8660    0.5670 c3        1 MOL      0.100407
     98 C32        -6.3280   -2.8730    1.2480 c3        1 MOL      0.041590
     99 C33        -4.3650   -4.4790    1.6190 c3        1 MOL     -0.248134
    100 C34        -7.2240   -3.5950    2.3170 c3        1 MOL     -0.325425
    101 H42        -6.2990   -2.5660   -1.6100 hn        1 MOL      0.259080
    102 H43        -3.9200   -2.4420   -0.0100 h1        1 MOL     -0.029158
    103 H44        -5.8910   -4.6280    0.0400 hc        1 MOL      0.005851
    104 H45        -6.9480   -2.3680    0.5180 hc        1 MOL      0.035947
    105 H46        -5.7410   -2.0790    1.7180 hc        1 MOL      0.035947
    106 H47        -4.8140   -5.2340    2.2660 hc        1 MOL      0.059473
    107 H48        -3.5200   -4.9170    1.0950 hc        1 MOL      0.059473
    108 H49        -3.9280   -3.6930    2.2270 hc        1 MOL      0.059473
    109 H50        -6.6590   -4.0220    3.1450 hc        1 MOL      0.092129
    110 H51        -7.8090   -2.8150    2.8100 hc        1 MOL      0.092129
    111 H52        -7.8880   -4.2870    1.8150 hc        1 MOL      0.092129
    112 N10        -2.4270   -3.4460   -1.8250 n         1 MOL     -0.299104
    113 C35        -1.5490   -4.0650   -2.8190 c3        1 MOL     -0.065399
    114 C36         0.0050   -3.9260   -2.6690 c         1 MOL      0.267606
    115 O17         0.8160   -4.4630   -3.4820 o         1 MOL     -0.509936
    116 C37        -1.9470   -3.7460   -4.2300 c3        1 MOL      0.386396
    117 C38        -1.9390   -2.2460   -4.4180 c3        1 MOL     -0.207567
    118 O18        -3.2150   -4.1960   -4.5610 oh        1 MOL     -0.640015
    119 H53        -2.3870   -2.4410   -1.6950 hn        1 MOL      0.341747
    120 H54        -1.6320   -5.1370   -2.6830 h1        1 MOL      0.120377
    121 H55        -1.2710   -4.1640   -4.9700 h1        1 MOL      0.000745
    122 H56        -3.4500   -3.8610   -5.4250 ho        1 MOL      0.391661
    123 H57        -2.7680   -1.8100   -3.8540 hc        1 MOL      0.037384
    124 H58        -0.9050   -1.9590   -4.1810 hc        1 MOL      0.037384
    125 H59        -2.0930   -2.1120   -5.4880 hc        1 MOL      0.037384
    126 N11         0.3330   -3.2680   -1.5260 n         1 MOL     -0.046853
    127 C39         1.6980   -2.8390   -1.1340 c3        1 MOL      0.459340
    128 C40         2.3030   -1.9040   -2.2360 c         1 MOL      0.217627
    129 O19         1.8380   -1.7390   -3.3610 o         1 MOL     -0.479282
    130 C41         2.6340   -4.0630   -0.8830 c3        1 MOL      0.486865
    131 C42         2.1640   -5.0410    0.1780 c3        1 MOL     -0.197563
    132 O20         3.8270   -3.6090   -0.3660 oh        1 MOL     -0.715073
    133 H60        -0.4500   -2.9210   -0.9810 hn        1 MOL     -0.022770
    134 H61         1.6900   -2.2370   -0.2210 h1        1 MOL     -0.363402
    135 H62         2.6900   -4.5990   -1.8380 h1        1 MOL      0.002641
    136 H63         3.7730   -3.1570    0.4760 ho        1 MOL      0.493290
    137 H64         1.1290   -5.3470   -0.0330 hc        1 MOL      0.009013
    138 H65         2.7820   -5.9390    0.1040 hc        1 MOL      0.009013
    139 H66         2.2290   -4.6110    1.1720 hc        1 MOL      0.009013
    140 N12         3.3160   -1.1610   -1.9560 n         1 MOL     -0.164729
    141 C43         4.0710   -0.2520   -2.9260 c3        1 MOL      0.077678
    142 C44         4.5020    1.0770   -2.2730 c         1 MOL      0.862651
    143 O21         5.1320    1.8630   -2.9220 o         1 MOL     -0.687410
    144 C45         5.2890   -1.1320   -3.5030 c3        1 MOL     -0.372652
    145 C46         6.4820   -1.3110   -2.5880 c3        1 MOL      0.036597
    146 C47         7.6440   -1.9430   -3.3470 c3        1 MOL      0.067059
    147 C48         8.7790   -2.1810   -2.3590 c3        1 MOL      0.090227
    148 N13        10.0660   -2.3610   -3.1050 n4        1 MOL     -0.378943
    149 H67         3.6410   -1.2760   -1.0040 hn        1 MOL      0.038813
    150 H68         3.4330    0.0710   -3.7500 h1        1 MOL      0.098679
    151 H69         5.6800   -0.6550   -4.4030 hc        1 MOL      0.117839
    152 H70         4.8290   -2.1140   -3.6430 hc        1 MOL      0.117839
    153 H71         6.1760   -1.9520   -1.7600 hc        1 MOL      0.032007
    154 H72         6.8510   -0.3760   -2.1660 hc        1 MOL      0.032007
    155 H73         8.0070   -1.2590   -4.1130 hc        1 MOL     -0.004776
    156 H74         7.3910   -2.8750   -3.8450 hc        1 MOL     -0.004776
    157 H75         8.5640   -3.0620   -1.7580 hx        1 MOL      0.082490
    158 H76         8.9190   -1.3070   -1.7210 hx        1 MOL      0.082490
    159 H77        10.3560   -1.5600   -3.6420 hn        1 MOL      0.320675
    160 H78        10.8110   -2.4450   -2.4390 hn        1 MOL      0.320675
    161 H79        10.0920   -3.1990   -3.6780 hn        1 MOL      0.320675
    162 N14         4.0800    1.3630   -1.0560 n         1 MOL     -0.667614
    163 C49         4.3250    2.7090   -0.4210 c3        1 MOL      0.251194
    164 C50         5.7100    2.8340    0.2380 c         1 MOL      0.181131
    165 O22         6.1410    2.0250    1.0640 o         1 MOL     -0.419645
    166 C51         3.1870    3.1010    0.5470 c3        1 MOL      0.646191
    167 C52         3.3470    4.4140    1.3560 c3        1 MOL     -0.123491
    168 C53         3.2840    5.6480    0.3780 c         1 MOL      0.401217
    169 O23         2.3150    5.7730   -0.3770 o         1 MOL     -0.662124
    170 O24         4.2710    6.4310    0.2710 o         1 MOL     -0.662124
    171 H80         3.5800    0.6490   -0.5530 hn        1 MOL      0.251209
    172 H81         4.3380    3.4600   -1.2100 h1        1 MOL      0.032669
    173 H82         3.1130    2.3360    1.3150 hc        1 MOL     -0.270596
    174 H83         2.2440    3.1580    0.0030 hc        1 MOL     -0.270596
    175 H84         4.2600    4.3400    1.9470 hc        1 MOL      0.061146
    176 H85         2.4740    4.5460    1.9950 hc        1 MOL      0.061146
    177 N15         6.4560    3.8680   -0.1950 n         1 MOL     -0.152065
    178 C54         7.7880    4.2570    0.1610 c3        1 MOL     -0.137784
    179 H86         8.2070    4.8810   -0.6270 h1        1 MOL      0.075966
    180 H87         7.7660    4.8190    1.0950 h1        1 MOL      0.075966
    181 H88         8.4050    3.3670    0.2870 h1        1 MOL      0.075966
    182 H89         6.0390    4.4780   -0.8920 hn        1 MOL      0.259435
    183 Ca1        -0.0770    5.7940   -1.0610 Ca        1 MOL      1.629078
    184 O25        -2.0040    4.7900   -2.8510 oh        1 MOL     -0.823901
    185 H90        -2.8590    4.9150   -3.2630 ho        1 MOL      0.416967
    186 H91        -1.7740    3.8800   -3.0310 ho        1 MOL      0.416967
    187 O26        -0.7950    7.8920   -2.7440 oh        1 MOL     -0.823901
    188 H92        -0.6760    7.8670   -3.6970 ho        1 MOL      0.416967
    189 H93        -0.5590    8.7830   -2.5020 ho        1 MOL      0.416967
    190 O27         1.5480    5.7550   -3.2490 oh        1 MOL     -0.823901
    191 H94         2.2300    5.0940   -3.1280 ho        1 MOL      0.416967
    192 H95         2.0160    6.5730   -3.3850 ho        1 MOL      0.416967
@<TRIPOS>BOND
     1    1    2 1   
     2    1    4 1   
     3    1    5 1   
     4    1    6 1   
     5    2    3 2   
     6    2    7 1   
     7    7    8 1   
     8    7   15 1   
     9    8    9 1   
    10    8   11 1   
    11    8   16 1   
    12    9   10 2   
    13    9   19 1   
    14   11   12 1   
    15   11   17 1   
    16   11   18 1   
    17   12   13 1   
    18   12   14 1   
    19   19   20 1   
    20   19   28 1   
    21   20   21 1   
    22   20   23 1   
    23   20   29 1   
    24   21   22 2   
    25   21   41 1   
    26   23   24 1   
    27   23   30 1   
    28   23   31 1   
    29   24   25 1   
    30   24   32 1   
    31   24   33 1   
    32   25   26 1   
    33   25   34 1   
    34   25   35 1   
    35   26   27 1   
    36   26   36 1   
    37   26   37 1   
    38   27   38 1   
    39   27   39 1   
    40   27   40 1   
    41   41   42 1   
    42   41   49 1   
    43   42   43 1   
    44   42   45 1   
    45   42   50 1   
    46   43   44 2   
    47   43   53 1   
    48   45   46 1   
    49   45   51 1   
    50   45   52 1   
    51   46   47 1   
    52   46   48 1   
    53   53   54 1   
    54   53   57 1   
    55   54   55 1   
    56   54   58 1   
    57   54   59 1   
    58   55   56 2   
    59   55   60 1   
    60   60   61 1   
    61   60   68 1   
    62   61   62 1   
    63   61   64 1   
    64   61   69 1   
    65   62   63 2   
    66   62   72 1   
    67   64   65 1   
    68   64   70 1   
    69   64   71 1   
    70   65   66 1   
    71   65   67 1   
    72   72   73 1   
    73   72   76 1   
    74   73   74 1   
    75   73   77 1   
    76   73   78 1   
    77   74   75 2   
    78   74   79 1   
    79   79   80 1   
    80   79   86 1   
    81   80   81 1   
    82   80   83 1   
    83   80   87 1   
    84   81   82 2   
    85   81   93 1   
    86   83   84 1   
    87   83   85 1   
    88   83   88 1   
    89   84   90 1   
    90   84   91 1   
    91   84   92 1   
    92   85   89 1   
    93   93   94 1   
    94   93  101 1   
    95   94   95 1   
    96   94   97 1   
    97   94  102 1   
    98   95   96 2   
    99   95  112 1   
   100   97   98 1   
   101   97   99 1   
   102   97  103 1   
   103   98  100 1   
   104   98  104 1   
   105   98  105 1   
   106   99  106 1   
   107   99  107 1   
   108   99  108 1   
   109  100  109 1   
   110  100  110 1   
   111  100  111 1   
   112  112  113 1   
   113  112  119 1   
   114  113  114 1   
   115  113  116 1   
   116  113  120 1   
   117  114  115 2   
   118  114  126 1   
   119  116  117 1   
   120  116  118 1   
   121  116  121 1   
   122  117  123 1   
   123  117  124 1   
   124  117  125 1   
   125  118  122 1   
   126  126  127 1   
   127  126  133 1   
   128  127  128 1   
   129  127  130 1   
   130  127  134 1   
   131  128  129 2   
   132  128  140 1   
   133  130  131 1   
   134  130  132 1   
   135  130  135 1   
   136  131  137 1   
   137  131  138 1   
   138  131  139 1   
   139  132  136 1   
   140  140  141 1   
   141  140  149 1   
   142  141  142 1   
   143  141  144 1   
   144  141  150 1   
   145  142  143 2   
   146  142  162 1   
   147  144  145 1   
   148  144  151 1   
   149  144  152 1   
   150  145  146 1   
   151  145  153 1   
   152  145  154 1   
   153  146  147 1   
   154  146  155 1   
   155  146  156 1   
   156  147  148 1   
   157  147  157 1   
   158  147  158 1   
   159  148  159 1   
   160  148  160 1   
   161  148  161 1   
   162  162  163 1   
   163  162  171 1   
   164  163  164 1   
   165  163  166 1   
   166  163  172 1   
   167  164  165 2   
   168  164  177 1   
   169  166  167 1   
   170  166  173 1   
   171  166  174 1   
   172  167  168 1   
   173  167  175 1   
   174  167  176 1   
   175  168  169 1   
   176  168  170 1   
   177  177  178 1   
   178  177  182 1   
   179  178  179 1   
   180  178  180 1   
   181  178  181 1   
   182  184  185 1   
   183  184  186 1   
   184  187  188 1   
   185  187  189 1   
   186  190  191 1   
   187  190  192 1   
@<TRIPOS>SUBSTRUCTURE
     1 MOL         1 TEMP              0 ****  ****    0 ROOT
