@<TRIPOS>MOLECULE
MOL
  201   193     1     0     0
SMALL
resp


@<TRIPOS>ATOM
      1 C1         -3.7990   -4.4350    2.2900 c3        1 MOL     -0.360797
      2 C2         -2.6770   -4.3790    1.2810 c         1 MOL      0.817144
      3 O1         -1.8900   -3.4210    1.4490 o         1 MOL     -0.593696
      4 H1         -3.9430   -3.4470    2.7280 hc        1 MOL      0.048437
      5 H2         -4.7180   -4.7500    1.7960 hc        1 MOL      0.048437
      6 H3         -3.5460   -5.1460    3.0770 hc        1 MOL      0.048437
      7 N1         -2.5930   -5.2360    0.2550 n         1 MOL     -0.502751
      8 C3         -1.6760   -5.1490   -0.8130 c3        1 MOL     -0.076290
      9 C4         -0.1320   -5.2430   -0.5930 c         1 MOL      0.695404
     10 O2          0.7180   -5.0530   -1.5130 o         1 MOL     -0.548865
     11 C5         -1.9950   -4.0130   -1.8070 c3        1 MOL     -0.410913
     12 C6         -3.5240   -3.9000   -2.1240 c         1 MOL      0.757661
     13 O3         -4.2070   -4.8800   -2.4680 o         1 MOL     -0.630778
     14 O4         -3.8770   -2.7060   -2.1260 o         1 MOL     -0.630778
     15 H4         -3.2640   -5.9940    0.2590 hn        1 MOL      0.309766
     16 H5         -1.7610   -6.0250   -1.4430 h1        1 MOL      0.079935
     17 H6         -1.4660   -4.1550   -2.7490 hc        1 MOL      0.135833
     18 H7         -1.6700   -3.0790   -1.3470 hc        1 MOL      0.135833
     19 N2          0.2310   -5.4750    0.6690 n         1 MOL     -0.499393
     20 C7          1.6040   -5.2630    1.1010 c3        1 MOL     -0.219466
     21 C8          2.6610   -6.1550    0.4530 c         1 MOL      0.474937
     22 O5          2.4250   -7.4050    0.2110 o         1 MOL     -0.581205
     23 C9          1.7030   -5.2930    2.6420 c3        1 MOL      0.465523
     24 C10         1.1750   -6.6840    3.1980 c3        1 MOL      0.185315
     25 C11         1.0420   -4.0370    3.2640 c3        1 MOL     -0.367417
     26 C12         1.3660   -6.7700    4.7160 c3        1 MOL     -0.290654
     27 H8         -0.4670   -5.6120    1.3920 hn        1 MOL      0.222792
     28 H9          1.8270   -4.2380    0.7990 h1        1 MOL      0.120968
     29 H10         2.7680   -5.2500    2.8840 hc        1 MOL     -0.018401
     30 H11         1.7740   -7.4900    2.7900 hc        1 MOL     -0.044106
     31 H12         0.1110   -6.7220    2.9440 hc        1 MOL     -0.044106
     32 H13        -0.0410   -4.1110    3.2060 hc        1 MOL      0.075928
     33 H14         1.4200   -3.8320    4.2710 hc        1 MOL      0.075928
     34 H15         1.2900   -3.1440    2.6870 hc        1 MOL      0.075928
     35 H16         2.4090   -6.5300    4.9240 hc        1 MOL      0.050892
     36 H17         0.7350   -6.0410    5.2220 hc        1 MOL      0.050892
     37 H18         1.1540   -7.7770    5.0480 hc        1 MOL      0.050892
     38 N3          3.9160   -5.7380    0.1670 n         1 MOL     -0.364996
     39 C13         4.5190   -4.5170    0.4480 c3        1 MOL      0.048183
     40 C14         4.4640   -3.5030   -0.7610 c         1 MOL      0.462372
     41 O6          4.5340   -2.3420   -0.5760 o         1 MOL     -0.506624
     42 C15         5.9540   -4.7280    0.8410 c3        1 MOL      0.018385
     43 C16         6.1300   -5.4660    2.1500 c         1 MOL      0.716917
     44 O7          7.1870   -6.1510    2.2930 o         1 MOL     -0.726678
     45 O8          5.2070   -5.3820    2.9820 o         1 MOL     -0.726678
     46 H19         4.4960   -6.4780   -0.1760 hn        1 MOL      0.288777
     47 H20         3.9770   -4.0680    1.2830 h1        1 MOL      0.024407
     48 H21         6.5060   -3.7950    0.8980 hc        1 MOL     -0.040494
     49 H22         6.4210   -5.3890    0.1210 hc        1 MOL     -0.040494
     50 N4          4.2330   -3.9610   -2.0250 n         1 MOL     -0.292737
     51 C17         4.1990   -3.1300   -3.2180 c3        1 MOL     -0.210283
     52 C18         5.5830   -2.6300   -3.4690 c         1 MOL      0.495294
     53 O9          6.5190   -3.4690   -3.7300 o         1 MOL     -0.579137
     54 H23         4.0190   -4.9440   -2.1350 hn        1 MOL      0.249786
     55 H24         3.5480   -2.2700   -3.0380 h1        1 MOL      0.116974
     56 H25         3.8390   -3.6810   -4.0850 h1        1 MOL      0.116974
     57 N5          5.7560   -1.3090   -3.5250 n         1 MOL     -0.344001
     58 C19         7.0040   -0.6040   -3.8270 c3        1 MOL      0.092420
     59 C20         7.8440   -0.4320   -2.5150 c         1 MOL      0.302597
     60 O10         8.9150    0.1330   -2.5390 o         1 MOL     -0.552499
     61 C21         6.6670    0.7750   -4.3430 c3        1 MOL     -0.264509
     62 C22         5.6870    1.6630   -3.5520 c         1 MOL      0.805513
     63 O11         5.4500    1.4620   -2.3250 o         1 MOL     -0.725069
     64 O12         5.1890    2.5930   -4.1790 o         1 MOL     -0.725069
     65 H26         4.9460   -0.7330   -3.6630 hn        1 MOL      0.259746
     66 H27         7.6080   -1.0270   -4.6300 h1        1 MOL      0.077424
     67 H28         6.2670    0.6060   -5.3400 hc        1 MOL      0.046066
     68 H29         7.5790    1.3840   -4.3700 hc        1 MOL      0.046066
     69 N6          7.4380   -0.8890   -1.3800 n         1 MOL     -0.024728
     70 C23         8.0270   -0.7060   -0.0860 c3        1 MOL     -0.263864
     71 C24         7.9380    0.6850    0.5500 c         1 MOL      0.581188
     72 O13         8.3060    0.8100    1.7080 o         1 MOL     -0.590921
     73 H30         6.5340   -1.3130   -1.5230 hn        1 MOL      0.128701
     74 H31         9.0400   -1.1220   -0.1120 h1        1 MOL      0.127198
     75 H32         7.4810   -1.4120    0.5350 h1        1 MOL      0.127198
     76 N7          7.5900    1.7450   -0.1970 n         1 MOL     -0.237789
     77 C25         7.4660    3.1610    0.2180 c3        1 MOL     -0.135484
     78 C26         6.4370    3.5260    1.2840 c         1 MOL      0.482390
     79 O14         6.2460    4.6930    1.6140 o         1 MOL     -0.503762
     80 C27         8.8520    3.6430    0.6150 c3        1 MOL      0.129813
     81 C28         9.9510    3.6600   -0.5450 c3        1 MOL     -0.322847
     82 C29        11.2450    4.3840   -0.2040 c         1 MOL      0.673549
     83 N8         12.1630    3.7490    0.5190 n         1 MOL     -0.811607
     84 O15        11.5330    5.5240   -0.6100 o         1 MOL     -0.584428
     85 H33         7.1990    1.5630   -1.1140 hn        1 MOL      0.230634
     86 H34         7.2430    3.8060   -0.6320 h1        1 MOL      0.163366
     87 H35         9.1500    3.1720    1.5560 hc        1 MOL     -0.005075
     88 H36         8.6490    4.6920    0.8370 hc        1 MOL     -0.005075
     89 H37         9.5520    4.2110   -1.3950 hc        1 MOL      0.102007
     90 H38        10.2480    2.7090   -0.9920 hc        1 MOL      0.102007
     91 H39        11.7520    2.9940    1.0570 hn        1 MOL      0.360260
     92 H40        13.0630    4.1470    0.7200 hn        1 MOL      0.360260
     93 N9          5.6830    2.5490    1.8200 n         1 MOL     -0.316571
     94 C30         4.6700    2.7530    2.9000 c3        1 MOL      0.049131
     95 C31         3.2180    2.9030    2.4620 c         1 MOL      0.572662
     96 O16         2.5830    3.8920    2.9210 o         1 MOL     -0.579602
     97 C32         4.8180    1.8890    4.0880 c3        1 MOL      0.342853
     98 C33         4.7070    0.3850    3.5940 c3        1 MOL     -0.483122
     99 C34         6.1560    2.0860    4.7140 c3        1 MOL     -0.483122
    100 H41         5.8990    1.5980    1.5660 hn        1 MOL      0.188555
    101 H42         4.9150    3.7680    3.2360 h1        1 MOL      0.036968
    102 H43         3.9400    2.1640    4.6670 hc        1 MOL     -0.060318
    103 H44         4.9890   -0.3360    4.3500 hc        1 MOL      0.119557
    104 H45         3.6640    0.1720    3.3500 hc        1 MOL      0.119557
    105 H46         5.3440    0.2080    2.7280 hc        1 MOL      0.119557
    106 H47         6.1370    1.5130    5.6360 hc        1 MOL      0.119557
    107 H48         6.9430    1.6540    4.1010 hc        1 MOL      0.119557
    108 H49         6.2380    3.1580    4.9000 hc        1 MOL      0.119557
    109 N10         2.7520    2.1170    1.5260 n         1 MOL     -0.441542
    110 C35         1.3010    1.8780    1.1510 c3        1 MOL      0.130616
    111 C36         0.9210    2.9760    0.1440 c         1 MOL      0.519955
    112 O17         1.8170    3.4890   -0.5710 o         1 MOL     -0.514202
    113 C37         0.9900    0.3840    0.6450 c3        1 MOL      0.009826
    114 C38        -0.4580   -0.0010    0.8070 c         1 MOL      0.512822
    115 N11        -0.7950   -1.1630    0.2230 n         1 MOL     -0.610276
    116 O18        -1.3130    0.7070    1.3560 o         1 MOL     -0.510761
    117 H50         3.4630    1.6020    1.0340 hn        1 MOL      0.249302
    118 H51         0.6500    1.9700    2.0320 h1        1 MOL      0.014434
    119 H52         1.6230   -0.2460    1.2620 hc        1 MOL      0.018474
    120 H53         1.2290    0.2230   -0.4040 hc        1 MOL      0.018474
    121 H54        -0.0940   -1.7820   -0.1400 hn        1 MOL      0.326550
    122 H55        -1.7280   -1.5350    0.3130 hn        1 MOL      0.326550
    123 N12        -0.3820    3.1890   -0.0680 n         1 MOL     -0.365998
    124 C39        -0.9230    4.3170   -0.8280 c3        1 MOL      0.015176
    125 C40        -2.3560    4.5410   -0.2990 c         1 MOL      0.540926
    126 O19        -2.9110    3.7340    0.3920 o         1 MOL     -0.508517
    127 C41        -1.0280    3.8130   -2.2960 c3        1 MOL     -0.194529
    128 C42        -1.9720    2.6310   -2.6030 ca        1 MOL      0.036508
    129 C43        -1.6490    1.2760   -2.2530 ca        1 MOL     -0.167390
    130 C44        -3.1980    2.9610   -3.1940 ca        1 MOL     -0.167390
    131 C45        -2.5440    0.2320   -2.4020 ca        1 MOL     -0.311061
    132 C46        -4.1940    1.8970   -3.3320 ca        1 MOL     -0.311061
    133 C47        -3.8420    0.5510   -2.9300 ca        1 MOL      0.459205
    134 O20        -4.6290   -0.5180   -3.1130 oh        1 MOL     -0.590342
    135 H56        -1.0020    2.6520    0.5050 hn        1 MOL      0.213160
    136 H57        -0.3150    5.2130   -0.7920 h1        1 MOL      0.096532
    137 H58        -0.0330    3.5470   -2.6330 hc        1 MOL      0.080447
    138 H59        -1.3590    4.7090   -2.8180 hc        1 MOL      0.080447
    139 H60        -0.6620    1.0970   -1.8700 ha        1 MOL      0.145215
    140 H61        -3.4160    3.9650   -3.5230 ha        1 MOL      0.145215
    141 H62        -2.3230   -0.7660   -2.0400 ha        1 MOL      0.136056
    142 H63        -5.1240    2.1420   -3.8210 ha        1 MOL      0.136056
    143 H64        -4.2180   -1.3090   -2.7570 ho        1 MOL      0.405914
    144 N13        -2.9990    5.6790   -0.5640 n         1 MOL     -0.496171
    145 C48        -4.4200    5.9410   -0.2470 c3        1 MOL      0.182099
    146 C49        -5.3890    5.6820   -1.4300 c         1 MOL      0.454759
    147 O21        -5.3970    6.4480   -2.4100 o         1 MOL     -0.554076
    148 C50        -4.5460    7.3610    0.1770 c3        1 MOL     -0.332441
    149 C51        -3.8270    7.7540    1.5490 c3        1 MOL     -0.091571
    150 C52        -4.3430    9.0510    2.0820 c         1 MOL      0.744401
    151 O22        -4.3630   10.0120    1.3390 o         1 MOL     -0.642636
    152 O23        -4.6810    9.1410    3.2380 o         1 MOL     -0.642636
    153 H65        -2.5650    6.4600   -1.0380 hn        1 MOL      0.313333
    154 H66        -4.6860    5.2960    0.5850 h1        1 MOL      0.087084
    155 H67        -5.5790    7.6710    0.3290 hc        1 MOL      0.114297
    156 H68        -4.0580    8.0320   -0.5380 hc        1 MOL      0.114297
    157 H69        -2.7370    7.7150    1.5030 hc        1 MOL      0.017342
    158 H70        -3.9480    6.9480    2.2750 hc        1 MOL      0.017342
    159 N14        -6.2690    4.6630   -1.3660 n         1 MOL     -0.419260
    160 C53        -6.3130    3.5200   -0.3930 c3        1 MOL      0.004934
    161 C54        -6.5190    3.9020    1.1040 c         1 MOL      0.450916
    162 O24        -7.3620    4.8310    1.4210 o         1 MOL     -0.538949
    163 C55        -7.4360    2.5830   -0.9000 c3        1 MOL      0.026958
    164 C56        -7.7360    1.3300   -0.0830 c3        1 MOL     -0.507217
    165 C57        -8.7730    0.5030   -0.6850 c         1 MOL      0.805374
    166 O25        -9.7960    1.1210   -1.1780 o         1 MOL     -0.668730
    167 O26        -8.5550   -0.7370   -0.7970 o         1 MOL     -0.668730
    168 H71        -6.8690    4.5490   -2.1650 hn        1 MOL      0.279671
    169 H72        -5.3620    3.0150   -0.5230 h1        1 MOL      0.094971
    170 H73        -7.1450    2.1380   -1.8510 hc        1 MOL      0.050072
    171 H74        -8.3440    3.1650   -1.0830 hc        1 MOL      0.050072
    172 H75        -8.1470    1.6080    0.8890 hc        1 MOL      0.096773
    173 H76        -6.8150    0.7720    0.0580 hc        1 MOL      0.096773
    174 N15        -5.8040    3.2280    2.0000 n         1 MOL     -0.226243
    175 C58        -5.8890    3.2430    3.4600 c3        1 MOL     -0.098764
    176 H77        -6.8420    3.6780    3.7630 h1        1 MOL      0.069340
    177 H78        -5.8190    2.2230    3.8390 h1        1 MOL      0.069340
    178 H79        -5.0720    3.8390    3.8670 h1        1 MOL      0.069340
    179 H80        -5.1260    2.5790    1.6320 hn        1 MOL      0.252028
    180 Ca1        -8.4260   -3.0810    0.1940 Ca        1 MOL      1.713405
    181 O27       -11.0540   -2.1870    0.2880 oh        1 MOL     -0.793604
    182 H81       -11.5800   -2.8970    0.6620 ho        1 MOL      0.364234
    183 H82       -11.5010   -1.3880    0.5760 ho        1 MOL      0.364234
    184 O28        -9.8120   -4.0600    2.3690 oh        1 MOL     -0.793604
    185 H83        -9.9160   -4.9600    2.6600 ho        1 MOL      0.364234
    186 H84       -10.0960   -3.5190    3.1140 ho        1 MOL      0.364234
    187 O29        -9.3330   -5.7070   -0.3220 oh        1 MOL     -0.793604
    188 H85       -10.1330   -6.1020    0.0310 ho        1 MOL      0.364234
    189 H86        -8.7970   -6.4510   -0.5960 ho        1 MOL      0.364234
    190 O30        -8.5050   -1.4700    2.3480 oh        1 MOL     -0.793604
    191 H87        -8.8790   -0.5960    2.4370 ho        1 MOL      0.364234
    192 H88        -8.7330   -1.9220    3.1670 ho        1 MOL      0.364234
    193 O31        -6.6570   -4.5810   -1.0980 oh        1 MOL     -0.793604
    194 H89        -6.7400   -5.5270   -0.9640 ho        1 MOL      0.364234
    195 H90        -5.8560   -4.4760   -1.6100 ho        1 MOL      0.364234
    196 O32        -5.7070   -1.9310   -0.1640 oh        1 MOL     -0.793604
    197 H91        -5.0310   -2.2730   -0.7510 ho        1 MOL      0.364234
    198 H92        -5.6100   -0.9830   -0.2130 ho        1 MOL      0.364234
    199 O33        -9.3640   -3.3130   -2.3360 oh        1 MOL     -0.793604
    200 H93        -9.3260   -2.9330   -3.2170 ho        1 MOL      0.364234
    201 H94        -9.6690   -4.2080   -2.4720 ho        1 MOL      0.364234
@<TRIPOS>BOND
     1    1    2 1   
     2    1    4 1   
     3    1    5 1   
     4    1    6 1   
     5    2    3 2   
     6    2    7 1   
     7    7    8 1   
     8    7   15 1   
     9    8    9 1   
    10    8   11 1   
    11    8   16 1   
    12    9   10 2   
    13    9   19 1   
    14   11   12 1   
    15   11   17 1   
    16   11   18 1   
    17   12   13 1   
    18   12   14 1   
    19   19   20 1   
    20   19   27 1   
    21   20   21 1   
    22   20   23 1   
    23   20   28 1   
    24   21   22 2   
    25   21   38 1   
    26   23   24 1   
    27   23   25 1   
    28   23   29 1   
    29   24   26 1   
    30   24   30 1   
    31   24   31 1   
    32   25   32 1   
    33   25   33 1   
    34   25   34 1   
    35   26   35 1   
    36   26   36 1   
    37   26   37 1   
    38   38   39 1   
    39   38   46 1   
    40   39   40 1   
    41   39   42 1   
    42   39   47 1   
    43   40   41 2   
    44   40   50 1   
    45   42   43 1   
    46   42   48 1   
    47   42   49 1   
    48   43   44 1   
    49   43   45 1   
    50   50   51 1   
    51   50   54 1   
    52   51   52 1   
    53   51   55 1   
    54   51   56 1   
    55   52   53 2   
    56   52   57 1   
    57   57   58 1   
    58   57   65 1   
    59   58   59 1   
    60   58   61 1   
    61   58   66 1   
    62   59   60 2   
    63   59   69 1   
    64   61   62 1   
    65   61   67 1   
    66   61   68 1   
    67   62   63 1   
    68   62   64 1   
    69   69   70 1   
    70   69   73 1   
    71   70   71 1   
    72   70   74 1   
    73   70   75 1   
    74   71   72 2   
    75   71   76 1   
    76   76   77 1   
    77   76   85 1   
    78   77   78 1   
    79   77   80 1   
    80   77   86 1   
    81   78   79 2   
    82   78   93 1   
    83   80   81 1   
    84   80   87 1   
    85   80   88 1   
    86   81   82 1   
    87   81   89 1   
    88   81   90 1   
    89   82   83 1   
    90   82   84 2   
    91   83   91 1   
    92   83   92 1   
    93   93   94 1   
    94   93  100 1   
    95   94   95 1   
    96   94   97 1   
    97   94  101 1   
    98   95   96 2   
    99   95  109 1   
   100   97   98 1   
   101   97   99 1   
   102   97  102 1   
   103   98  103 1   
   104   98  104 1   
   105   98  105 1   
   106   99  106 1   
   107   99  107 1   
   108   99  108 1   
   109  109  110 1   
   110  109  117 1   
   111  110  111 1   
   112  110  113 1   
   113  110  118 1   
   114  111  112 2   
   115  111  123 1   
   116  113  114 1   
   117  113  119 1   
   118  113  120 1   
   119  114  115 1   
   120  114  116 2   
   121  115  121 1   
   122  115  122 1   
   123  123  124 1   
   124  123  135 1   
   125  124  125 1   
   126  124  127 1   
   127  124  136 1   
   128  125  126 2   
   129  125  144 1   
   130  127  128 1   
   131  127  137 1   
   132  127  138 1   
   133  128  129 ar  
   134  128  130 ar  
   135  129  131 ar  
   136  129  139 1   
   137  130  132 ar  
   138  130  140 1   
   139  131  133 ar  
   140  131  141 1   
   141  132  133 ar  
   142  132  142 1   
   143  133  134 1   
   144  134  143 1   
   145  144  145 1   
   146  144  153 1   
   147  145  146 1   
   148  145  148 1   
   149  145  154 1   
   150  146  147 2   
   151  146  159 1   
   152  148  149 1   
   153  148  155 1   
   154  148  156 1   
   155  149  150 1   
   156  149  157 1   
   157  149  158 1   
   158  150  151 1   
   159  150  152 1   
   160  159  160 1   
   161  159  168 1   
   162  160  161 1   
   163  160  163 1   
   164  160  169 1   
   165  161  162 2   
   166  161  174 1   
   167  163  164 1   
   168  163  170 1   
   169  163  171 1   
   170  164  165 1   
   171  164  172 1   
   172  164  173 1   
   173  165  166 1   
   174  165  167 1   
   175  174  175 1   
   176  174  179 1   
   177  175  176 1   
   178  175  177 1   
   179  175  178 1   
   180  181  182 1   
   181  181  183 1   
   182  184  185 1   
   183  184  186 1   
   184  187  188 1   
   185  187  189 1   
   186  190  191 1   
   187  190  192 1   
   188  193  194 1   
   189  193  195 1   
   190  196  197 1   
   191  196  198 1   
   192  199  200 1   
   193  199  201 1   
@<TRIPOS>SUBSTRUCTURE
     1 MOL         1 TEMP              0 ****  ****    0 ROOT
