@<TRIPOS>MOLECULE
MOL
  186   183     1     0     0
SMALL
resp


@<TRIPOS>ATOM
      1 C1          4.6420    4.4930   -3.1370 c3        1 MOL     -0.429202
      2 C2          5.2710    3.4460   -2.1660 c         1 MOL      0.772645
      3 O1          4.6510    2.9020   -1.3080 o         1 MOL     -0.561861
      4 H1          3.5600    4.3590   -3.1640 hc        1 MOL      0.106013
      5 H2          4.8730    5.4990   -2.7860 hc        1 MOL      0.106013
      6 H3          5.0510    4.3540   -4.1370 hc        1 MOL      0.106013
      7 N1          6.5320    3.0590   -2.4670 n         1 MOL     -0.626533
      8 C3          7.3330    1.9090   -1.9690 c3        1 MOL      0.072837
      9 C4          6.4950    0.5890   -1.7220 c         1 MOL      0.385828
     10 O2          5.9630    0.3690   -0.6480 o         1 MOL     -0.440208
     11 C5          8.2350    2.3590   -0.8250 c3        1 MOL     -0.171206
     12 C6          7.5920    3.2750    0.1960 c         1 MOL      0.786904
     13 O3          6.8550    2.8500    1.1260 o         1 MOL     -0.738521
     14 O4          7.8820    4.4650    0.1030 o         1 MOL     -0.738521
     15 H4          6.9630    3.5750   -3.2240 hn        1 MOL      0.327096
     16 H5          8.0610    1.6710   -2.7440 h1        1 MOL      0.042909
     17 H6          8.9650    2.9950   -1.3200 hc        1 MOL      0.038733
     18 H7          8.7690    1.5640   -0.3020 hc        1 MOL      0.038733
     19 N2          6.4200   -0.3430   -2.7230 n         1 MOL     -0.380668
     20 C7          5.6580   -1.5940   -2.6100 c3        1 MOL      0.076541
     21 C8          6.2920   -2.5580   -1.5830 c         1 MOL      0.312293
     22 O5          6.7580   -3.6150   -2.0350 o         1 MOL     -0.555699
     23 C9          4.1360   -1.5090   -2.4880 c3        1 MOL      0.141823
     24 C10         3.4220   -2.6920   -3.2640 c3        1 MOL      0.212221
     25 C11         3.6320   -0.1100   -2.9800 c3        1 MOL     -0.159418
     26 C12         3.6160   -2.7700   -4.7950 c3        1 MOL     -0.295497
     27 H8          6.8740   -0.1380   -3.5950 hn        1 MOL      0.255086
     28 H9          5.8030   -2.0980   -3.5590 h1        1 MOL      0.035942
     29 H10         3.8550   -1.5780   -1.4370 hc        1 MOL     -0.057674
     30 H11         2.3550   -2.5550   -3.0650 hc        1 MOL     -0.031983
     31 H12         3.6870   -3.6520   -2.8300 hc        1 MOL     -0.031983
     32 H13         4.0280    0.2470   -3.9380 hc        1 MOL      0.017715
     33 H14         2.5450   -0.1790   -3.0540 hc        1 MOL      0.017715
     34 H15         3.8500    0.6240   -2.2060 hc        1 MOL      0.017715
     35 H16         3.0460   -3.6430   -5.1140 hc        1 MOL      0.053619
     36 H17         3.2340   -1.9100   -5.3320 hc        1 MOL      0.053619
     37 H18         4.6370   -3.0820   -4.9990 hc        1 MOL      0.053619
     38 N3          6.2610   -2.3350   -0.2650 n         1 MOL      0.176129
     39 C13         6.9240   -3.1600    0.7450 c3        1 MOL     -0.306231
     40 C14         6.3460   -4.5590    0.9910 c         1 MOL      0.610815
     41 O6          7.0330   -5.6290    1.0300 o         1 MOL     -0.595372
     42 C15         7.0550   -2.4580    2.1420 c3        1 MOL     -0.022217
     43 C16         7.4510   -0.9240    2.0440 c         1 MOL      0.709145
     44 O7          6.4770   -0.1920    2.2190 o         1 MOL     -0.690380
     45 O8          8.5880   -0.5680    1.7580 o         1 MOL     -0.690380
     46 H19         5.8720   -1.4590    0.0370 hn        1 MOL      0.020367
     47 H20         7.9330   -3.3610    0.3890 h1        1 MOL      0.108340
     48 H21         7.8040   -2.9290    2.7870 hc        1 MOL      0.013128
     49 H22         6.1290   -2.5770    2.7040 hc        1 MOL      0.013128
     50 N4          5.0370   -4.7980    1.2180 n         1 MOL     -0.584546
     51 C17         3.9610   -3.8510    1.1170 c3        1 MOL      0.182285
     52 C18         2.6440   -4.3680    1.8200 c         1 MOL      0.502425
     53 O9          2.3790   -5.5960    1.6850 o         1 MOL     -0.612252
     54 H23         4.7460   -5.7600    1.2580 hn        1 MOL      0.323899
     55 H24         3.5820   -3.8080    0.0920 h1        1 MOL      0.054282
     56 H25         4.2170   -2.8800    1.5330 h1        1 MOL      0.054282
     57 N5          1.9000   -3.6250    2.5600 n         1 MOL     -0.426295
     58 C19         2.1230   -2.2450    3.0270 c3        1 MOL      0.090153
     59 C20         2.4110   -1.2290    1.8730 c         1 MOL      0.012883
     60 O10         3.4660   -0.6870    1.7450 o         1 MOL     -0.328801
     61 C21         3.0800   -2.2290    4.2140 c3        1 MOL     -0.186922
     62 C22         3.2540   -0.8880    4.8610 c         1 MOL      0.606104
     63 O11         2.3930    0.0660    4.7650 o         1 MOL     -0.655720
     64 O12         4.3610   -0.7820    5.4690 o         1 MOL     -0.655720
     65 H26         1.0610   -4.0480    2.9310 hn        1 MOL      0.289806
     66 H27         1.1800   -1.8940    3.4530 h1        1 MOL      0.074400
     67 H28         4.0670   -2.4700    3.8220 hc        1 MOL      0.072680
     68 H29         2.7420   -2.9200    4.9730 hc        1 MOL      0.072680
     69 N6          1.4730   -0.6900    1.0740 n         1 MOL     -0.163245
     70 C23         0.1150   -1.1330    1.0180 c3        1 MOL      0.039934
     71 C24        -0.1630   -2.4150    0.2700 c         1 MOL      0.628953
     72 O13         0.5890   -2.8570   -0.5240 o         1 MOL     -0.572797
     73 H30         1.8030   -0.1040    0.3180 hn        1 MOL      0.206670
     74 H31        -0.4840   -0.3160    0.6220 h1        1 MOL      0.016159
     75 H32        -0.2290   -1.2640    2.0410 h1        1 MOL      0.016159
     76 N7         -1.2640   -3.0520    0.6320 n         1 MOL     -0.493491
     77 C25        -1.7050   -4.2950    0.0120 c3        1 MOL     -0.001658
     78 C26        -2.4240   -4.0620   -1.3290 c         1 MOL      0.380334
     79 O14        -2.7130   -5.0930   -1.9390 o         1 MOL     -0.522836
     80 C27        -2.5620   -5.1240    1.0430 c3        1 MOL     -0.082451
     81 C28        -3.8140   -4.4200    1.6240 c3        1 MOL     -0.079131
     82 C29        -4.9210   -4.2940    0.5920 c         1 MOL      0.293192
     83 N8         -5.5200   -5.4200    0.1740 n         1 MOL     -0.640072
     84 O15        -5.1970   -3.2890    0.0640 o         1 MOL     -0.336654
     85 H33        -1.8550   -2.6010    1.3150 hn        1 MOL      0.279876
     86 H34        -0.8610   -4.9590   -0.1560 h1        1 MOL      0.146066
     87 H35        -1.9180   -5.2640    1.9200 hc        1 MOL      0.063960
     88 H36        -2.8110   -6.1050    0.6350 hc        1 MOL      0.063960
     89 H37        -3.5600   -3.4380    2.0070 hc        1 MOL      0.046356
     90 H38        -4.2140   -4.9610    2.4790 hc        1 MOL      0.046356
     91 H39        -5.4090   -6.3180    0.6140 hn        1 MOL      0.345645
     92 H40        -6.1910   -5.1540   -0.5320 hn        1 MOL      0.345645
     93 N9         -2.6250   -2.7910   -1.7560 n         1 MOL     -0.059913
     94 C30        -2.9810   -2.4130   -3.1420 c3        1 MOL     -0.072553
     95 C31        -4.3940   -1.7860   -3.2570 c         1 MOL      0.434057
     96 O16        -4.6840   -1.3070   -4.3400 o         1 MOL     -0.523911
     97 C32        -1.8730   -1.5120   -3.7650 c3        1 MOL      0.149179
     98 C33        -0.5810   -2.2120   -3.9630 c3        1 MOL     -0.163214
     99 C34        -1.5760   -0.1820   -2.9590 c3        1 MOL     -0.163214
    100 H41        -2.4660   -2.0510   -1.0920 hn        1 MOL      0.127827
    101 H42        -3.0300   -3.3020   -3.7770 h1        1 MOL      0.091030
    102 H43        -2.2180   -1.2640   -4.7670 hc        1 MOL     -0.003638
    103 H44        -0.1080   -2.5290   -3.0350 hc        1 MOL      0.042830
    104 H45        -0.6320   -3.1110   -4.5950 hc        1 MOL      0.042830
    105 H46         0.1270   -1.5310   -4.4290 hc        1 MOL      0.042830
    106 H47        -0.8000    0.3840   -3.4800 hc        1 MOL      0.042830
    107 H48        -2.5290    0.3140   -2.7790 hc        1 MOL      0.042830
    108 H49        -1.1220   -0.4080   -1.9940 hc        1 MOL      0.042830
    109 N10        -5.2310   -1.5760   -2.1790 n         1 MOL     -0.262492
    110 C35        -6.5780   -0.8710   -2.2190 c3        1 MOL     -0.015600
    111 C36        -6.6580    0.4670   -1.3970 c         1 MOL      0.668887
    112 O17        -7.4960    1.3000   -1.7100 o         1 MOL     -0.573057
    113 C37        -7.6470   -1.8140   -1.6670 c3        1 MOL     -0.066856
    114 C38        -7.7540   -3.0840   -2.4170 c         1 MOL      0.670566
    115 N11        -7.8260   -3.0630   -3.7630 n         1 MOL     -0.826811
    116 O18        -7.8390   -4.1260   -1.8390 o         1 MOL     -0.579065
    117 H50        -4.9700   -1.9390   -1.2750 hn        1 MOL      0.133176
    118 H51        -6.8150   -0.5850   -3.2410 h1        1 MOL      0.059774
    119 H52        -8.6050   -1.2920   -1.7630 hc        1 MOL      0.020914
    120 H53        -7.4230   -2.0130   -0.6150 hc        1 MOL      0.020914
    121 H54        -7.6020   -2.3100   -4.3960 hn        1 MOL      0.366061
    122 H55        -8.1000   -3.9410   -4.1960 hn        1 MOL      0.366061
    123 N12        -5.8040    0.5450   -0.3650 n         1 MOL     -0.615007
    124 C39        -5.7480    1.6340    0.6150 c3        1 MOL      0.532843
    125 C40        -4.5410    2.5450    0.3600 c         1 MOL      0.289834
    126 O19        -3.4950    2.0680   -0.0650 o         1 MOL     -0.524284
    127 C41        -5.8800    1.0010    2.0060 c3        1 MOL      0.000491
    128 C42        -7.1130    0.2120    2.2910 ca        1 MOL      0.031014
    129 C43        -7.1500   -1.1550    2.4360 ca        1 MOL     -0.183176
    130 C44        -8.3530    0.9030    2.5190 ca        1 MOL     -0.183176
    131 C45        -8.4080   -1.8490    2.6070 ca        1 MOL     -0.195345
    132 C46        -9.6160    0.2730    2.6580 ca        1 MOL     -0.195345
    133 C47        -9.5670   -1.1070    2.5550 ca        1 MOL      0.277054
    134 O20       -10.7410   -1.8170    2.8190 oh        1 MOL     -0.501656
    135 H56        -5.3810   -0.3200   -0.0460 hn        1 MOL      0.226528
    136 H57        -6.6260    2.2660    0.4460 h1        1 MOL     -0.044282
    137 H58        -5.7230    1.7870    2.7400 hc        1 MOL      0.007360
    138 H59        -5.0430    0.3320    2.2030 hc        1 MOL      0.007360
    139 H60        -6.2510   -1.7510    2.3420 ha        1 MOL      0.142043
    140 H61        -8.3740    1.9700    2.6940 ha        1 MOL      0.142043
    141 H62        -8.3930   -2.9120    2.7940 ha        1 MOL      0.147504
    142 H63       -10.4890    0.8730    2.8730 ha        1 MOL      0.147504
    143 H64       -10.5560   -2.7600    2.7830 ho        1 MOL      0.329739
    144 N13        -4.6180    3.7850    0.7960 n         1 MOL     -0.339286
    145 C48        -3.5410    4.7950    1.0580 c3        1 MOL     -0.071445
    146 C49        -2.5290    5.2670   -0.0640 c         1 MOL      0.540917
    147 O21        -2.0340    6.4050   -0.0790 o         1 MOL     -0.535033
    148 C50        -2.7800    4.4160    2.3660 c3        1 MOL      0.080022
    149 C51        -3.5030    4.0320    3.6800 c3        1 MOL     -0.293871
    150 C52        -4.5130    5.1540    4.0700 c         1 MOL      0.741726
    151 O22        -4.2770    5.9910    4.9670 o         1 MOL     -0.722369
    152 O23        -5.6070    5.1510    3.4880 o         1 MOL     -0.722369
    153 H65        -5.5320    3.9660    1.1760 hn        1 MOL      0.222602
    154 H66        -4.1180    5.6960    1.2420 h1        1 MOL      0.092304
    155 H67        -2.1420    5.2530    2.6440 hc        1 MOL      0.039350
    156 H68        -2.0470    3.6780    2.0480 hc        1 MOL      0.039350
    157 H69        -2.7640    3.9210    4.4680 hc        1 MOL      0.048237
    158 H70        -4.0280    3.0850    3.5460 hc        1 MOL      0.048237
    159 N14        -2.0970    4.3020   -0.8980 n         1 MOL     -0.461628
    160 C53        -0.9040    4.5080   -1.7310 c3        1 MOL     -0.202633
    161 C54        -1.1790    5.4060   -2.9570 c         1 MOL      0.589229
    162 O24        -0.2360    5.8730   -3.5890 o         1 MOL     -0.554977
    163 C55        -0.2950    3.2140   -2.1430 c3        1 MOL     -0.028144
    164 C56         0.1750    2.2950   -1.0040 c3        1 MOL      0.097905
    165 C57         1.3490    2.7650   -0.1350 c         1 MOL      0.607817
    166 O25         1.2410    3.7330    0.6530 o         1 MOL     -0.642214
    167 O26         2.2550    1.8980    0.0840 o         1 MOL     -0.642214
    168 H71        -2.5040    3.3860   -0.7800 hn        1 MOL      0.321400
    169 H72        -0.1450    4.9800   -1.1060 h1        1 MOL      0.190748
    170 H73         0.6340    3.4260   -2.6810 hc        1 MOL      0.004927
    171 H74        -1.0510    2.7610   -2.7740 hc        1 MOL      0.004927
    172 H75         0.3650    1.2910   -1.3770 hc        1 MOL     -0.000697
    173 H76        -0.6900    2.1630   -0.3530 hc        1 MOL     -0.000697
    174 N15        -2.4750    5.7200   -3.1470 n         1 MOL     -0.271422
    175 C58        -2.9830    6.6410   -4.1430 c3        1 MOL     -0.258543
    176 H77        -4.0700    6.5730   -4.1780 h1        1 MOL      0.101902
    177 H78        -2.6900    7.6580   -3.8810 h1        1 MOL      0.101902
    178 H79        -2.5720    6.3840   -5.1190 h1        1 MOL      0.101902
    179 H80        -3.0880    5.4660   -2.3770 hn        1 MOL      0.244260
    180 Ca1         4.6100    1.5720    1.1900 Ca        1 MOL      1.687994
    181 O27         3.6580    4.0630    1.5810 oh        1 MOL     -0.856018
    182 H81         2.7640    4.1410    1.2490 ho        1 MOL      0.396522
    183 H82         3.7340    4.7690    2.2270 ho        1 MOL      0.396522
    184 O28         4.1160    1.9580    3.7690 oh        1 MOL     -0.856018
    185 H83         3.4470    2.6400    3.8570 ho        1 MOL      0.396522
    186 H84         3.8780    1.2970    4.4160 ho        1 MOL      0.396522
@<TRIPOS>BOND
     1    1    2 1   
     2    1    4 1   
     3    1    5 1   
     4    1    6 1   
     5    2    3 2   
     6    2    7 1   
     7    7    8 1   
     8    7   15 1   
     9    8    9 1   
    10    8   11 1   
    11    8   16 1   
    12    9   10 2   
    13    9   19 1   
    14   11   12 1   
    15   11   17 1   
    16   11   18 1   
    17   12   13 1   
    18   12   14 1   
    19   19   20 1   
    20   19   27 1   
    21   20   21 1   
    22   20   23 1   
    23   20   28 1   
    24   21   22 2   
    25   21   38 1   
    26   23   24 1   
    27   23   25 1   
    28   23   29 1   
    29   24   26 1   
    30   24   30 1   
    31   24   31 1   
    32   25   32 1   
    33   25   33 1   
    34   25   34 1   
    35   26   35 1   
    36   26   36 1   
    37   26   37 1   
    38   38   39 1   
    39   38   46 1   
    40   39   40 1   
    41   39   42 1   
    42   39   47 1   
    43   40   41 2   
    44   40   50 1   
    45   42   43 1   
    46   42   48 1   
    47   42   49 1   
    48   43   44 1   
    49   43   45 1   
    50   50   51 1   
    51   50   54 1   
    52   51   52 1   
    53   51   55 1   
    54   51   56 1   
    55   52   53 2   
    56   52   57 1   
    57   57   58 1   
    58   57   65 1   
    59   58   59 1   
    60   58   61 1   
    61   58   66 1   
    62   59   60 2   
    63   59   69 1   
    64   61   62 1   
    65   61   67 1   
    66   61   68 1   
    67   62   63 1   
    68   62   64 1   
    69   69   70 1   
    70   69   73 1   
    71   70   71 1   
    72   70   74 1   
    73   70   75 1   
    74   71   72 2   
    75   71   76 1   
    76   76   77 1   
    77   76   85 1   
    78   77   78 1   
    79   77   80 1   
    80   77   86 1   
    81   78   79 2   
    82   78   93 1   
    83   80   81 1   
    84   80   87 1   
    85   80   88 1   
    86   81   82 1   
    87   81   89 1   
    88   81   90 1   
    89   82   83 1   
    90   82   84 2   
    91   83   91 1   
    92   83   92 1   
    93   93   94 1   
    94   93  100 1   
    95   94   95 1   
    96   94   97 1   
    97   94  101 1   
    98   95   96 2   
    99   95  109 1   
   100   97   98 1   
   101   97   99 1   
   102   97  102 1   
   103   98  103 1   
   104   98  104 1   
   105   98  105 1   
   106   99  106 1   
   107   99  107 1   
   108   99  108 1   
   109  109  110 1   
   110  109  117 1   
   111  110  111 1   
   112  110  113 1   
   113  110  118 1   
   114  111  112 2   
   115  111  123 1   
   116  113  114 1   
   117  113  119 1   
   118  113  120 1   
   119  114  115 1   
   120  114  116 2   
   121  115  121 1   
   122  115  122 1   
   123  123  124 1   
   124  123  135 1   
   125  124  125 1   
   126  124  127 1   
   127  124  136 1   
   128  125  126 2   
   129  125  144 1   
   130  127  128 1   
   131  127  137 1   
   132  127  138 1   
   133  128  129 ar  
   134  128  130 ar  
   135  129  131 ar  
   136  129  139 1   
   137  130  132 ar  
   138  130  140 1   
   139  131  133 ar  
   140  131  141 1   
   141  132  133 ar  
   142  132  142 1   
   143  133  134 1   
   144  134  143 1   
   145  144  145 1   
   146  144  153 1   
   147  145  146 1   
   148  145  148 1   
   149  145  154 1   
   150  146  147 2   
   151  146  159 1   
   152  148  149 1   
   153  148  155 1   
   154  148  156 1   
   155  149  150 1   
   156  149  157 1   
   157  149  158 1   
   158  150  151 1   
   159  150  152 1   
   160  159  160 1   
   161  159  168 1   
   162  160  161 1   
   163  160  163 1   
   164  160  169 1   
   165  161  162 2   
   166  161  174 1   
   167  163  164 1   
   168  163  170 1   
   169  163  171 1   
   170  164  165 1   
   171  164  172 1   
   172  164  173 1   
   173  165  166 1   
   174  165  167 1   
   175  174  175 1   
   176  174  179 1   
   177  175  176 1   
   178  175  177 1   
   179  175  178 1   
   180  181  182 1   
   181  181  183 1   
   182  184  185 1   
   183  184  186 1   
@<TRIPOS>SUBSTRUCTURE
     1 MOL         1 TEMP              0 ****  ****    0 ROOT
