@<TRIPOS>MOLECULE
MOL
  178   175     1     0     0
SMALL
resp


@<TRIPOS>ATOM
      1 C1         -3.8740   -3.0710   -3.5000 c3        1 MOL     -0.354044
      2 C2         -5.2290   -2.4770   -3.3400 c         1 MOL      0.741976
      3 O1         -5.3810   -1.2690   -3.3410 o         1 MOL     -0.608981
      4 H1         -3.9190   -3.8860   -4.2220 hc        1 MOL      0.084163
      5 H2         -3.1820   -2.3080   -3.8570 hc        1 MOL      0.084163
      6 H3         -3.5300   -3.4560   -2.5400 hc        1 MOL      0.084163
      7 N1         -6.2920   -3.2570   -3.2500 n         1 MOL     -0.648926
      8 C3         -7.6480   -2.7760   -3.0960 c3        1 MOL      0.368317
      9 C4         -7.8860   -2.1640   -1.7390 c         1 MOL      0.524403
     10 O2         -7.4080   -2.7850   -0.7770 o         1 MOL     -0.432913
     11 C5         -8.6470   -3.8180   -3.5260 c3        1 MOL     -0.323877
     12 C6         -8.8230   -4.9520   -2.5510 c         1 MOL      0.698204
     13 O3         -7.8850   -5.7410   -2.3830 o         1 MOL     -0.714168
     14 O4         -9.7900   -4.9680   -1.7720 o         1 MOL     -0.714168
     15 H4         -6.0850   -4.2360   -3.4060 hn        1 MOL      0.302749
     16 H5         -7.7440   -1.9260   -3.7810 h1        1 MOL     -0.051104
     17 H6         -8.3630   -4.2720   -4.4740 hc        1 MOL      0.026697
     18 H7         -9.6040   -3.3130   -3.6270 hc        1 MOL      0.026697
     19 N2         -8.5840   -1.0170   -1.6110 n         1 MOL     -0.560532
     20 C7         -8.5460   -0.1830   -0.3910 c3        1 MOL      0.196845
     21 C8         -7.1270    0.0330    0.2270 c         1 MOL      0.660187
     22 O5         -6.2960    0.7520   -0.3180 o         1 MOL     -0.532159
     23 C9         -9.1650    1.1870   -0.6690 c3        1 MOL     -0.480841
     24 H8         -8.9160   -0.5620   -2.4530 hn        1 MOL      0.315758
     25 H9         -9.3000   -0.5430    0.3160 h1        1 MOL      0.040959
     26 H10        -8.5290    1.5930   -1.4500 hc        1 MOL      0.120451
     27 H11       -10.2170    1.0170   -0.8730 hc        1 MOL      0.120451
     28 H12        -9.0360    1.8010    0.2280 hc        1 MOL      0.120451
     29 N3         -6.7940   -0.7000    1.3290 n         1 MOL     -0.707124
     30 C10        -5.3170   -0.8550    1.7290 c3        1 MOL      0.034992
     31 C11        -4.9540   -0.0790    3.0400 c         1 MOL      0.624235
     32 O6         -5.7850   -0.0010    3.9800 o         1 MOL     -0.558699
     33 C12        -5.0660   -2.3690    2.0370 c3        1 MOL      0.330667
     34 C13        -3.6520   -2.8620    2.2010 c         1 MOL      0.522625
     35 O7         -2.8270   -2.1370    1.6710 o         1 MOL     -0.751365
     36 O8         -3.3800   -3.8520    2.9560 o         1 MOL     -0.751365
     37 H13        -7.5510   -1.2400    1.7350 hn        1 MOL      0.310181
     38 H14        -4.7310   -0.5590    0.8650 h1        1 MOL      0.114116
     39 H15        -5.5420   -3.0620    1.3430 hc        1 MOL     -0.050633
     40 H16        -5.6370   -2.5970    2.9420 hc        1 MOL     -0.050633
     41 N4         -3.6900    0.2430    3.1860 n         1 MOL     -0.605452
     42 C14        -3.0360    0.5580    4.4620 c3        1 MOL      0.395531
     43 C15        -2.9740    2.1010    4.6310 c         1 MOL      0.482169
     44 O9         -3.4580    2.6630    5.6150 o         1 MOL     -0.535902
     45 H17        -3.0360   -0.0620    2.4870 hn        1 MOL      0.308468
     46 H18        -2.0920    0.0540    4.6940 h1        1 MOL     -0.062062
     47 H19        -3.6030    0.2470    5.3390 h1        1 MOL     -0.062062
     48 N5         -2.2570    2.7030    3.6430 n         1 MOL     -0.683409
     49 C16        -1.9410    4.0610    3.6160 c3        1 MOL      0.733029
     50 C17        -2.2400    4.6310    2.2200 c         1 MOL      0.334258
     51 O10        -2.4800    3.9470    1.2150 o         1 MOL     -0.487147
     52 C18        -0.4420    4.2200    3.9780 c3        1 MOL     -0.534838
     53 C19        -0.0920    5.5950    4.3530 c         1 MOL      0.710392
     54 N6          1.1680    5.8460    4.2180 n         1 MOL     -0.750565
     55 O11        -0.9480    6.3670    4.7670 o         1 MOL     -0.588140
     56 H20        -1.9590    2.0640    2.9220 hn        1 MOL      0.291150
     57 H21        -2.5640    4.5830    4.3350 h1        1 MOL     -0.066367
     58 H22         0.1030    3.8460    3.1200 hc        1 MOL      0.131809
     59 H23        -0.2770    3.6350    4.8810 hc        1 MOL      0.131809
     60 H24         1.7200    5.0330    3.9830 hn        1 MOL      0.353699
     61 H25         1.5920    6.5890    4.7580 hn        1 MOL      0.353699
     62 N7         -2.2520    5.9380    2.1320 n         1 MOL     -0.381716
     63 C20        -2.4910    6.7340    0.8940 c3        1 MOL     -0.031987
     64 C21        -1.1330    6.8670    0.1090 c         1 MOL      0.558118
     65 O12         0.0180    6.7760    0.5660 o         1 MOL     -0.520351
     66 H26        -2.1810    6.4500    2.9980 hn        1 MOL      0.265915
     67 H27        -2.8870    7.7390    1.0670 h1        1 MOL      0.075054
     68 H28        -3.2160    6.1660    0.3160 h1        1 MOL      0.075054
     69 N8         -1.2840    6.9350   -1.1910 n         1 MOL     -0.372571
     70 C22        -0.1060    7.0800   -2.0860 c3        1 MOL     -0.390887
     71 C23         0.7750    5.8780   -2.3920 c         1 MOL      0.621906
     72 O13         1.9010    6.1360   -2.7290 o         1 MOL     -0.571500
     73 C24        -0.4090    7.7880   -3.3890 c3        1 MOL      0.587274
     74 C25        -1.2900    7.0460   -4.3480 c3        1 MOL     -0.606317
     75 O14        -1.0380    9.0150   -3.0890 oh        1 MOL     -0.673660
     76 H29        -2.2230    7.0900   -1.5460 hn        1 MOL      0.231335
     77 H30         0.4980    7.7370   -1.4610 h1        1 MOL      0.180930
     78 H31         0.5300    8.0300   -3.8880 h1        1 MOL      0.032418
     79 H32        -1.9710    8.8720   -2.9010 ho        1 MOL      0.393790
     80 H33        -0.7680    6.1430   -4.6590 hc        1 MOL      0.152771
     81 H34        -2.2700    6.7700   -3.9490 hc        1 MOL      0.152771
     82 H35        -1.2620    7.6610   -5.2540 hc        1 MOL      0.152771
     83 N9          0.3200    4.6130   -2.2090 n         1 MOL     -0.204783
     84 C26         1.1060    3.4380   -2.4300 c3        1 MOL     -0.033103
     85 C27         0.9930    2.3520   -1.3700 c         1 MOL      0.423549
     86 O15         0.1070    2.4350   -0.4790 o         1 MOL     -0.450660
     87 C28         1.0050    2.9300   -3.9120 c3        1 MOL     -0.117941
     88 C29        -0.3550    2.3820   -4.4230 c3        1 MOL      0.017876
     89 C30         1.5410    3.8850   -5.0720 c3        1 MOL     -0.170859
     90 C31        -0.8060    1.2140   -3.5710 c3        1 MOL     -0.113127
     91 H36        -0.5630    4.4830   -1.7280 hn        1 MOL      0.221380
     92 H37         2.1110    3.8120   -2.2230 h1        1 MOL      0.092230
     93 H38         1.6730    2.0720   -3.9630 hc        1 MOL      0.062941
     94 H39        -0.2470    1.9760   -5.4280 hc        1 MOL      0.007287
     95 H40        -1.0760    3.1900   -4.5350 hc        1 MOL      0.007287
     96 H41         0.9650    4.8060   -5.1050 hc        1 MOL      0.046005
     97 H42         2.5670    4.2040   -4.8840 hc        1 MOL      0.046005
     98 H43         1.5480    3.4740   -6.0800 hc        1 MOL      0.046005
     99 H44        -1.6810    0.7100   -3.9940 hc        1 MOL      0.060933
    100 H45         0.0080    0.5120   -3.4160 hc        1 MOL      0.060933
    101 H46        -1.2810    1.6280   -2.6810 hc        1 MOL      0.060933
    102 N10         1.9590    1.4450   -1.3390 n         1 MOL     -0.461270
    103 C32         2.0150    0.3060   -0.4370 c3        1 MOL      0.244096
    104 C33         3.4400   -0.1400   -0.0200 c         1 MOL      0.392438
    105 O16         3.6830   -1.2550    0.4310 o         1 MOL     -0.421213
    106 C34         1.1470   -0.8900   -0.8490 c3        1 MOL      0.008020
    107 C35         0.6410   -1.7520    0.2640 c         1 MOL      0.667615
    108 O17         0.5980   -1.3430    1.4810 o         1 MOL     -0.709392
    109 O18         0.1530   -2.8640   -0.0670 o         1 MOL     -0.709392
    110 H47         2.5410    1.4240   -2.1650 hn        1 MOL      0.266085
    111 H48         1.5690    0.6360    0.4930 h1        1 MOL      0.014288
    112 H49         1.7030   -1.4900   -1.5720 hc        1 MOL     -0.029708
    113 H50         0.2810   -0.5030   -1.3870 hc        1 MOL     -0.029708
    114 N11         4.4320    0.7050   -0.2180 n         1 MOL     -0.392317
    115 C36         5.8500    0.4210    0.1080 c3        1 MOL      0.136528
    116 C37         6.4110   -0.8700   -0.4420 c         1 MOL      0.270917
    117 O19         6.2960   -1.1940   -1.6240 o         1 MOL     -0.479741
    118 C38         6.7550    1.6040   -0.4100 c3        1 MOL     -0.173618
    119 C39         8.2150    1.4570   -0.2080 ca        1 MOL     -0.056229
    120 C40         8.7710    2.0760    0.9440 ca        1 MOL     -0.047975
    121 C41         9.0460    0.5900   -1.0070 ca        1 MOL     -0.047975
    122 C42        10.0870    1.9020    1.3230 ca        1 MOL     -0.157654
    123 C43        10.3610    0.4300   -0.6530 ca        1 MOL     -0.157654
    124 C44        10.8530    1.0270    0.5090 ca        1 MOL     -0.099259
    125 H51         4.1380    1.4960   -0.7680 hn        1 MOL      0.207249
    126 H52         5.9600    0.4880    1.1960 h1        1 MOL      0.043105
    127 H53         6.4000    2.5520   -0.0130 hc        1 MOL      0.099830
    128 H54         6.5620    1.7080   -1.4790 hc        1 MOL      0.099830
    129 H55         8.1080    2.7430    1.4610 ha        1 MOL      0.097209
    130 H56         8.6260    0.0420   -1.8350 ha        1 MOL      0.097209
    131 H57        10.5430    2.3050    2.2220 ha        1 MOL      0.121077
    132 H58        10.9630   -0.3320   -1.1270 ha        1 MOL      0.121077
    133 H59        11.7990    0.6380    0.8570 ha        1 MOL      0.094641
    134 N12         7.1200   -1.7040    0.3430 n         1 MOL     -0.053256
    135 C45         7.7330   -2.9190   -0.0580 c3        1 MOL      0.054584
    136 C46         6.7930   -3.9660   -0.6010 c         1 MOL      0.217799
    137 O20         7.3350   -4.9060   -1.1900 o         1 MOL     -0.500356
    138 C47         8.4560   -3.4680    1.1650 c3        1 MOL     -0.016257
    139 C48         8.9130   -2.2300    1.9260 c3        1 MOL     -0.171729
    140 C49         7.6180   -1.4560    1.6760 c3        1 MOL      0.098082
    141 H60         8.4640   -2.7060   -0.8260 h1        1 MOL      0.096727
    142 H61         7.7230   -3.9630    1.8040 hc        1 MOL      0.033533
    143 H62         9.2820   -4.1060    0.8610 hc        1 MOL      0.033533
    144 H63         9.0990   -2.3700    2.9930 hc        1 MOL      0.061369
    145 H64         9.7550   -1.8600    1.3400 hc        1 MOL      0.061369
    146 H65         6.8960   -1.7120    2.4560 h1        1 MOL      0.004309
    147 H66         7.8860   -0.3980    1.6640 h1        1 MOL      0.004309
    148 N13         5.4920   -3.8670   -0.4410 n         1 MOL      0.042048
    149 C50         4.5950   -4.7800   -1.0330 c3        1 MOL     -0.232722
    150 C51         4.4640   -4.4460   -2.5950 c         1 MOL      0.440192
    151 O21         4.7500   -5.2990   -3.4730 o         1 MOL     -0.541743
    152 C52         3.2860   -4.7950   -0.3240 c3        1 MOL      0.142813
    153 C53         3.2810   -5.1320    1.1360 c3        1 MOL     -0.070019
    154 C54         1.8540   -4.9330    1.6740 c         1 MOL      0.522555
    155 O22         1.7450   -4.0670    2.5880 o         1 MOL     -0.684002
    156 O23         0.8670   -5.4610    1.0870 o         1 MOL     -0.684002
    157 H67         5.0780   -3.1140    0.1000 hn        1 MOL      0.126723
    158 H68         5.0610   -5.7670   -1.0120 h1        1 MOL      0.108794
    159 H69         2.6230   -5.4190   -0.9250 hc        1 MOL      0.005258
    160 H70         2.8810   -3.7870   -0.4150 hc        1 MOL      0.005258
    161 H71         4.0140   -4.4860    1.6240 hc        1 MOL     -0.002615
    162 H72         3.6470   -6.1470    1.2790 hc        1 MOL     -0.002615
    163 N14         4.2660   -3.1860   -2.9760 n         1 MOL     -0.127826
    164 C55         4.1750   -2.6900   -4.3330 c3        1 MOL     -0.218131
    165 H73         4.4630   -1.6380   -4.3540 h1        1 MOL      0.087590
    166 H74         4.8440   -3.2630   -4.9750 h1        1 MOL      0.087590
    167 H75         3.1510   -2.7930   -4.6910 h1        1 MOL      0.087590
    168 H76         4.0520   -2.5580   -2.2120 hn        1 MOL      0.201110
    169 Ca1        -0.8140   -3.7170    2.1330 Ca        1 MOL      1.754051
    170 O24        -2.0270   -5.5880    0.4090 oh        1 MOL     -0.814150
    171 H77        -2.7750   -6.1550    0.5680 ho        1 MOL      0.409405
    172 H78        -1.9410   -5.5630   -0.5350 ho        1 MOL      0.409405
    173 O25        -0.0250   -2.1510    4.3180 oh        1 MOL     -0.814150
    174 H79         0.5180   -1.4140    4.0420 ho        1 MOL      0.409405
    175 H80        -0.3650   -1.8770    5.1720 ho        1 MOL      0.409405
    176 O26        -0.9450   -5.4510    4.0110 oh        1 MOL     -0.814150
    177 H81        -1.3310   -6.3020    3.8280 ho        1 MOL      0.409405
    178 H82        -1.2420   -5.2300    4.8920 ho        1 MOL      0.409405
@<TRIPOS>BOND
     1    1    2 1   
     2    1    4 1   
     3    1    5 1   
     4    1    6 1   
     5    2    3 2   
     6    2    7 1   
     7    7    8 1   
     8    7   15 1   
     9    8    9 1   
    10    8   11 1   
    11    8   16 1   
    12    9   10 2   
    13    9   19 1   
    14   11   12 1   
    15   11   17 1   
    16   11   18 1   
    17   12   13 1   
    18   12   14 1   
    19   19   20 1   
    20   19   24 1   
    21   20   21 1   
    22   20   23 1   
    23   20   25 1   
    24   21   22 2   
    25   21   29 1   
    26   23   26 1   
    27   23   27 1   
    28   23   28 1   
    29   29   30 1   
    30   29   37 1   
    31   30   31 1   
    32   30   33 1   
    33   30   38 1   
    34   31   32 2   
    35   31   41 1   
    36   33   34 1   
    37   33   39 1   
    38   33   40 1   
    39   34   35 1   
    40   34   36 1   
    41   41   42 1   
    42   41   45 1   
    43   42   43 1   
    44   42   46 1   
    45   42   47 1   
    46   43   44 2   
    47   43   48 1   
    48   48   49 1   
    49   48   56 1   
    50   49   50 1   
    51   49   52 1   
    52   49   57 1   
    53   50   51 2   
    54   50   62 1   
    55   52   53 1   
    56   52   58 1   
    57   52   59 1   
    58   53   54 1   
    59   53   55 2   
    60   54   60 1   
    61   54   61 1   
    62   62   63 1   
    63   62   66 1   
    64   63   64 1   
    65   63   67 1   
    66   63   68 1   
    67   64   65 2   
    68   64   69 1   
    69   69   70 1   
    70   69   76 1   
    71   70   71 1   
    72   70   73 1   
    73   70   77 1   
    74   71   72 2   
    75   71   83 1   
    76   73   74 1   
    77   73   75 1   
    78   73   78 1   
    79   74   80 1   
    80   74   81 1   
    81   74   82 1   
    82   75   79 1   
    83   83   84 1   
    84   83   91 1   
    85   84   85 1   
    86   84   87 1   
    87   84   92 1   
    88   85   86 2   
    89   85  102 1   
    90   87   88 1   
    91   87   89 1   
    92   87   93 1   
    93   88   90 1   
    94   88   94 1   
    95   88   95 1   
    96   89   96 1   
    97   89   97 1   
    98   89   98 1   
    99   90   99 1   
   100   90  100 1   
   101   90  101 1   
   102  102  103 1   
   103  102  110 1   
   104  103  104 1   
   105  103  106 1   
   106  103  111 1   
   107  104  105 2   
   108  104  114 1   
   109  106  107 1   
   110  106  112 1   
   111  106  113 1   
   112  107  108 1   
   113  107  109 1   
   114  114  115 1   
   115  114  125 1   
   116  115  116 1   
   117  115  118 1   
   118  115  126 1   
   119  116  117 2   
   120  116  134 1   
   121  118  119 1   
   122  118  127 1   
   123  118  128 1   
   124  119  120 ar  
   125  119  121 ar  
   126  120  122 ar  
   127  120  129 1   
   128  121  123 ar  
   129  121  130 1   
   130  122  124 ar  
   131  122  131 1   
   132  123  124 ar  
   133  123  132 1   
   134  124  133 1   
   135  134  135 1   
   136  134  140 1   
   137  135  136 1   
   138  135  138 1   
   139  135  141 1   
   140  136  137 2   
   141  136  148 1   
   142  138  139 1   
   143  138  142 1   
   144  138  143 1   
   145  139  140 1   
   146  139  144 1   
   147  139  145 1   
   148  140  146 1   
   149  140  147 1   
   150  148  149 1   
   151  148  157 1   
   152  149  150 1   
   153  149  152 1   
   154  149  158 1   
   155  150  151 2   
   156  150  163 1   
   157  152  153 1   
   158  152  159 1   
   159  152  160 1   
   160  153  154 1   
   161  153  161 1   
   162  153  162 1   
   163  154  155 1   
   164  154  156 1   
   165  163  164 1   
   166  163  168 1   
   167  164  165 1   
   168  164  166 1   
   169  164  167 1   
   170  170  171 1   
   171  170  172 1   
   172  173  174 1   
   173  173  175 1   
   174  176  177 1   
   175  176  178 1   
@<TRIPOS>SUBSTRUCTURE
     1 MOL         1 TEMP              0 ****  ****    0 ROOT
