@<TRIPOS>MOLECULE
MOL
  195   189     1     0     0
SMALL
resp


@<TRIPOS>ATOM
      1 C1          4.9800    5.6970   -3.6290 c3        1 MOL     -0.282742
      2 C2          4.8610    4.3810   -2.8170 c         1 MOL      0.558216
      3 O1          5.4510    3.3290   -3.1960 o         1 MOL     -0.532782
      4 H1          4.3470    6.4600   -3.1770 hc        1 MOL      0.087126
      5 H2          6.0160    6.0350   -3.6240 hc        1 MOL      0.087126
      6 H3          4.6590    5.5200   -4.6560 hc        1 MOL      0.087126
      7 N1          4.1240    4.2800   -1.6470 n         1 MOL     -0.435459
      8 C3          3.9480    3.1810   -0.7310 c3        1 MOL      0.307905
      9 C4          2.5290    2.9270   -0.3010 c         1 MOL      0.348762
     10 O2          2.3360    2.1480    0.6890 o         1 MOL     -0.469330
     11 C5          4.9470    3.2730    0.4130 c3        1 MOL     -0.244770
     12 C6          4.9200    4.4970    1.2670 c         1 MOL      0.662011
     13 O3          5.7600    4.5390    2.2380 o         1 MOL     -0.686330
     14 O4          4.1960    5.4040    0.9380 o         1 MOL     -0.686330
     15 H4          3.6040    5.1010   -1.3560 hn        1 MOL      0.270436
     16 H5          4.2260    2.2680   -1.2640 h1        1 MOL     -0.004613
     17 H6          5.9070    3.1990   -0.1130 hc        1 MOL      0.081217
     18 H7          4.7980    2.4170    1.0770 hc        1 MOL      0.081217
     19 N2          1.5530    3.5190   -0.9610 n         1 MOL     -0.365471
     20 C7          0.0870    3.2870   -0.6870 c3        1 MOL      0.442371
     21 C8         -0.6210    2.6050   -1.8880 c         1 MOL      0.256487
     22 O5         -0.4790    3.0570   -2.9610 o         1 MOL     -0.542035
     23 C9         -0.6650    4.5350   -0.1900 c3        1 MOL     -0.059201
     24 C10        -0.1580    5.0250    1.1800 c3        1 MOL     -0.246469
     25 C11        -0.6620    6.4760    1.4190 c3        1 MOL      0.156789
     26 C12        -0.3970    6.8740    2.8770 c3        1 MOL     -0.005588
     27 N3         -1.1700    8.1430    3.2030 n4        1 MOL     -0.223979
     28 H8          1.7410    4.0870   -1.7830 hn        1 MOL      0.218783
     29 H9         -0.0160    2.5600    0.1240 h1        1 MOL     -0.108962
     30 H10        -1.7380    4.3690   -0.0600 hc        1 MOL      0.010095
     31 H11        -0.4410    5.3760   -0.8490 hc        1 MOL      0.010095
     32 H12         0.9220    4.9780    1.1290 hc        1 MOL      0.098839
     33 H13        -0.5720    4.3780    1.9610 hc        1 MOL      0.098839
     34 H14        -1.7150    6.4590    1.1410 hc        1 MOL      0.002036
     35 H15        -0.2260    7.2810    0.8300 hc        1 MOL      0.002036
     36 H16         0.6510    7.1960    2.9150 hx        1 MOL      0.077548
     37 H17        -0.5950    6.0120    3.5080 hx        1 MOL      0.077548
     38 H18        -0.7330    8.6050    3.9920 hn        1 MOL      0.269003
     39 H19        -1.1560    8.7680    2.4060 hn        1 MOL      0.269003
     40 H20        -2.1120    8.0120    3.5390 hn        1 MOL      0.269003
     41 N4         -1.3620    1.5910   -1.7670 n         1 MOL     -0.078336
     42 C13        -1.8060    0.8340   -0.5710 c3        1 MOL     -0.001325
     43 C14        -2.4520    1.6330    0.6070 c         1 MOL      0.206656
     44 O6         -1.9150    1.6080    1.6980 o         1 MOL     -0.516815
     45 C15        -0.6880   -0.1160   -0.1760 c3        1 MOL      0.611300
     46 C16        -0.1700   -1.0660   -1.2350 c         1 MOL      0.246863
     47 O7          0.8540   -0.6450   -1.7850 o         1 MOL     -0.617720
     48 O8         -0.6350   -2.1960   -1.4260 o         1 MOL     -0.617720
     49 H21        -1.5340    1.1660   -2.6570 hn        1 MOL      0.196835
     50 H22        -2.6030    0.2140   -0.9830 h1        1 MOL     -0.001350
     51 H23        -1.0210   -0.7250    0.6650 hc        1 MOL     -0.128251
     52 H24         0.1890    0.4170    0.1950 hc        1 MOL     -0.128251
     53 N5         -3.4920    2.3840    0.4710 n         1 MOL     -0.154096
     54 C17        -4.3610    2.4400   -0.7460 c3        1 MOL      0.123209
     55 C18        -5.2100    3.7140   -0.7960 c         1 MOL      0.358609
     56 O9         -4.9620    4.6320   -0.0180 o         1 MOL     -0.522043
     57 H25        -3.6440    3.1090    1.1520 hn        1 MOL      0.261756
     58 H26        -5.1080    1.6600   -0.6140 h1        1 MOL     -0.029864
     59 H27        -3.7860    2.3190   -1.6640 h1        1 MOL     -0.029864
     60 N6         -6.2780    3.7910   -1.5840 n         1 MOL     -0.264488
     61 C19        -7.0070    2.7770   -2.3540 c3        1 MOL      0.092983
     62 C20        -7.4890    1.5600   -1.4610 c         1 MOL      0.643926
     63 O10        -7.2540    1.4520   -0.2540 o         1 MOL     -0.480226
     64 C21        -8.1290    3.4600   -3.0850 c3        1 MOL     -0.305129
     65 C22        -9.2600    4.2320   -2.2820 c         1 MOL      0.672068
     66 O11       -10.4300    3.7810   -2.3010 o         1 MOL     -0.649087
     67 O12        -8.9870    5.1070   -1.4680 o         1 MOL     -0.649087
     68 H28        -6.6450    4.7340   -1.5550 hn        1 MOL      0.236417
     69 H29        -6.3520    2.3980   -3.1410 h1        1 MOL     -0.004721
     70 H30        -8.7240    2.7020   -3.6020 hc        1 MOL      0.046487
     71 H31        -7.5980    4.1630   -3.7220 hc        1 MOL      0.046487
     72 N7         -8.1300    0.6320   -2.1510 n         1 MOL     -0.467880
     73 C23        -8.6910   -0.6220   -1.4930 c3        1 MOL     -0.078296
     74 C24        -7.7180   -1.6590   -0.8840 c         1 MOL      0.438283
     75 O13        -8.1440   -2.3660    0.0240 o         1 MOL     -0.506666
     76 H32        -8.2890    0.7710   -3.1410 hn        1 MOL      0.301769
     77 H33        -9.3490   -1.1130   -2.2010 h1        1 MOL      0.120290
     78 H34        -9.4270   -0.3150   -0.7500 h1        1 MOL      0.120290
     79 N8         -6.4390   -1.6150   -1.3120 n         1 MOL     -0.421400
     80 C25        -5.3850   -2.4760   -0.6480 c3        1 MOL      0.262823
     81 C26        -4.7050   -1.8380    0.5330 c         1 MOL      0.528150
     82 O14        -4.4590   -0.6390    0.5310 o         1 MOL     -0.443978
     83 C27        -4.2380   -2.9060   -1.6440 c3        1 MOL      0.257216
     84 C28        -4.6320   -4.0730   -2.4790 c3        1 MOL     -0.384543
     85 O15        -3.1280   -3.4410   -0.9410 oh        1 MOL     -0.515332
     86 H35        -6.1100   -0.9630   -2.0060 hn        1 MOL      0.188777
     87 H36        -5.8660   -3.3940   -0.3010 h1        1 MOL      0.018538
     88 H37        -3.8690   -1.9990   -2.1230 h1        1 MOL      0.032859
     89 H38        -2.4290   -2.7890   -1.0440 ho        1 MOL      0.216999
     90 H39        -4.8130   -4.9430   -1.8370 hc        1 MOL      0.099120
     91 H40        -5.5150   -3.7960   -3.0410 hc        1 MOL      0.099120
     92 H41        -3.7510   -4.2260   -3.1120 hc        1 MOL      0.099120
     93 N9         -4.2770   -2.6710    1.5250 n         1 MOL     -0.474394
     94 C29        -4.0330   -2.2600    2.8490 c3        1 MOL     -0.094531
     95 C30        -2.5870   -2.4560    3.3660 c         1 MOL      0.392952
     96 O16        -2.3630   -2.0830    4.5660 o         1 MOL     -0.559754
     97 C31        -5.0030   -3.0040    3.8040 c3        1 MOL      0.161718
     98 C32        -4.8920   -4.5070    3.9340 c3        1 MOL     -0.005737
     99 C33        -6.4860   -2.6670    3.4640 c3        1 MOL     -0.141700
    100 C34        -5.3250   -5.0990    5.2660 c3        1 MOL     -0.166352
    101 H42        -4.1870   -3.6650    1.3540 hn        1 MOL      0.238097
    102 H43        -4.1550   -1.1840    2.9690 h1        1 MOL      0.148628
    103 H44        -4.8500   -2.5670    4.7900 hc        1 MOL      0.015144
    104 H45        -3.8400   -4.7940    3.9910 hc        1 MOL      0.023566
    105 H46        -5.3600   -5.0950    3.1500 hc        1 MOL      0.023566
    106 H47        -7.0740   -2.8060    4.3740 hc        1 MOL      0.042138
    107 H48        -6.5810   -1.6260    3.1550 hc        1 MOL      0.042138
    108 H49        -6.8050   -3.4570    2.7860 hc        1 MOL      0.042138
    109 H50        -6.3480   -4.7960    5.5060 hc        1 MOL      0.040737
    110 H51        -5.2650   -6.1860    5.2610 hc        1 MOL      0.040737
    111 H52        -4.7420   -4.7040    6.0940 hc        1 MOL      0.040737
    112 N10        -1.7290   -3.1890    2.6650 n         1 MOL     -0.007485
    113 C35        -0.4350   -3.6000    3.0770 c3        1 MOL      0.005270
    114 C36         0.6950   -2.6830    2.4630 c         1 MOL      0.610011
    115 O17         1.1540   -2.8840    1.3560 o         1 MOL     -0.530860
    116 C37        -0.1840   -5.0860    2.8600 c3        1 MOL      0.088477
    117 C38        -0.3260   -5.4560    1.3810 c3        1 MOL     -0.072786
    118 O18        -1.0390   -5.9170    3.6240 oh        1 MOL     -0.588955
    119 H53        -2.0790   -3.4020    1.7450 hn        1 MOL      0.151989
    120 H54        -0.3930   -3.4690    4.1570 h1        1 MOL      0.072579
    121 H55         0.8570   -5.2750    3.1290 h1        1 MOL      0.057446
    122 H56        -0.4690   -6.6380    3.8870 ho        1 MOL      0.411027
    123 H57        -1.3200   -5.2060    1.0130 hc        1 MOL      0.016534
    124 H58         0.4760   -5.0260    0.7740 hc        1 MOL      0.016534
    125 H59        -0.2330   -6.5420    1.3250 hc        1 MOL      0.016534
    126 N11         1.2050   -1.7240    3.2700 n         1 MOL     -0.674379
    127 C39         2.3500   -0.7980    2.8470 c3        1 MOL     -0.051568
    128 C40         3.6640   -1.5260    2.8430 c         1 MOL      0.706674
    129 O19         4.1060   -2.2200    3.7510 o         1 MOL     -0.577858
    130 C41         2.5850    0.3980    3.8050 c3        1 MOL      0.296981
    131 C42         1.2570    1.0510    4.1080 c3        1 MOL     -0.355731
    132 O20         3.3540    1.4220    3.2130 oh        1 MOL     -0.574356
    133 H60         0.7870   -1.4940    4.1600 hn        1 MOL      0.360978
    134 H61         2.1230   -0.3530    1.8800 h1        1 MOL      0.176862
    135 H62         3.2140    0.1240    4.6580 h1        1 MOL      0.030005
    136 H63         2.9600    1.7560    2.4070 ho        1 MOL      0.325683
    137 H64         0.6190    0.9810    3.2270 hc        1 MOL      0.103083
    138 H65         0.7960    0.4390    4.8810 hc        1 MOL      0.103083
    139 H66         1.3660    2.0920    4.4250 hc        1 MOL      0.103083
    140 N12         4.4180   -1.2540    1.8060 n         1 MOL     -0.546207
    141 C43         5.8660   -1.5610    1.6980 c3        1 MOL     -0.038880
    142 C44         6.3310   -2.2720    0.4130 c         1 MOL      0.510121
    143 O21         7.4490   -2.8020    0.2770 o         1 MOL     -0.566260
    144 C45         6.6600   -0.2530    1.8050 c3        1 MOL      0.000995
    145 C46         6.5630    0.3450    3.2460 c3        1 MOL     -0.009232
    146 C47         7.3240    1.6730    3.4160 c3        1 MOL     -0.164689
    147 C48         6.7230    2.3410    4.6530 c3        1 MOL      0.141159
    148 N13         5.4530    2.9810    4.4360 n4        1 MOL     -0.324432
    149 H67         4.0090   -0.6840    1.0770 hn        1 MOL      0.249784
    150 H68         6.2080   -2.2300    2.4800 h1        1 MOL      0.133912
    151 H69         6.3840    0.4990    1.0660 hc        1 MOL      0.029547
    152 H70         7.7230   -0.4180    1.6430 hc        1 MOL      0.029547
    153 H71         6.9850   -0.4530    3.8620 hc        1 MOL      0.018591
    154 H72         5.5220    0.3850    3.5690 hc        1 MOL      0.018591
    155 H73         7.1840    2.3290    2.5530 hc        1 MOL      0.078509
    156 H74         8.3720    1.4950    3.6130 hc        1 MOL      0.078509
    157 H75         7.4640    3.0730    4.9820 hx        1 MOL      0.029837
    158 H76         6.6590    1.6760    5.5080 hx        1 MOL      0.029837
    159 H77         5.2750    3.4990    5.2870 hn        1 MOL      0.279372
    160 H78         5.4010    3.5030    3.5840 hn        1 MOL      0.279372
    161 H79         4.7610    2.2600    4.2490 hn        1 MOL      0.279372
    162 N14         5.5200   -2.1320   -0.6180 n         1 MOL     -0.466013
    163 C49         6.0140   -2.3320   -1.9510 c3        1 MOL      0.178000
    164 C50         6.5910   -0.9680   -2.4380 c         1 MOL      0.425631
    165 O22         5.9080    0.0520   -2.2510 o         1 MOL     -0.430667
    166 C51         4.8280   -2.7480   -2.8390 c3        1 MOL     -0.064177
    167 C52         5.3360   -2.9600   -4.3230 c3        1 MOL     -0.159813
    168 C53         4.1100   -3.1260   -5.2240 c         1 MOL      0.754818
    169 O23         4.1720   -3.2790   -6.4440 o         1 MOL     -0.713030
    170 O24         2.9880   -3.3950   -4.6920 o         1 MOL     -0.713030
    171 H80         4.6510   -1.6400   -0.4940 hn        1 MOL      0.333407
    172 H81         6.7960   -3.0890   -1.9480 h1        1 MOL      0.049511
    173 H82         4.1780   -1.8730   -2.7380 hc        1 MOL     -0.017155
    174 H83         4.3520   -3.6250   -2.4120 hc        1 MOL     -0.017155
    175 H84         5.9950   -3.8210   -4.4100 hc        1 MOL      0.037292
    176 H85         5.8920   -2.0960   -4.6810 hc        1 MOL      0.037292
    177 N15         7.8200   -0.9510   -2.9130 n         1 MOL     -0.324349
    178 C54         8.4210    0.3170   -3.3630 c3        1 MOL     -0.128579
    179 H86         7.9430    1.1480   -2.8450 h1        1 MOL      0.088710
    180 H87         9.4880    0.3130   -3.1390 h1        1 MOL      0.088710
    181 H88         8.2740    0.4280   -4.4370 h1        1 MOL      0.088710
    182 H89         8.3380   -1.8120   -3.0550 hn        1 MOL      0.254148
    183 Ca1         0.8820   -3.2210   -3.1050 Ca        1 MOL      1.758551
    184 O25         2.3280   -3.7220   -0.9420 oh        1 MOL     -0.909025
    185 H90         2.7310   -4.5220   -0.6090 ho        1 MOL      0.442901
    186 H91         1.9780   -3.2860   -0.1620 ho        1 MOL      0.442901
    187 O26        -0.9270   -5.0720   -2.2380 oh        1 MOL     -0.909025
    188 H92        -1.0850   -5.9730   -1.9710 ho        1 MOL      0.442901
    189 H93        -1.7260   -4.6120   -1.9910 ho        1 MOL      0.442901
    190 O27         1.9880   -5.9240   -3.2880 oh        1 MOL     -0.909025
    191 H94         1.8080   -6.7740   -2.8850 ho        1 MOL      0.442901
    192 H95         2.9150   -5.9660   -3.5260 ho        1 MOL      0.442901
    193 O28         1.0810   -1.2230   -5.1230 oh        1 MOL     -0.909025
    194 H96         0.5640   -0.4130   -5.1470 ho        1 MOL      0.442901
    195 H97         1.5180   -1.2610   -5.9670 ho        1 MOL      0.442901
@<TRIPOS>BOND
     1    1    2 1   
     2    1    4 1   
     3    1    5 1   
     4    1    6 1   
     5    2    3 2   
     6    2    7 1   
     7    7    8 1   
     8    7   15 1   
     9    8    9 1   
    10    8   11 1   
    11    8   16 1   
    12    9   10 2   
    13    9   19 1   
    14   11   12 1   
    15   11   17 1   
    16   11   18 1   
    17   12   13 1   
    18   12   14 1   
    19   19   20 1   
    20   19   28 1   
    21   20   21 1   
    22   20   23 1   
    23   20   29 1   
    24   21   22 2   
    25   21   41 1   
    26   23   24 1   
    27   23   30 1   
    28   23   31 1   
    29   24   25 1   
    30   24   32 1   
    31   24   33 1   
    32   25   26 1   
    33   25   34 1   
    34   25   35 1   
    35   26   27 1   
    36   26   36 1   
    37   26   37 1   
    38   27   38 1   
    39   27   39 1   
    40   27   40 1   
    41   41   42 1   
    42   41   49 1   
    43   42   43 1   
    44   42   45 1   
    45   42   50 1   
    46   43   44 2   
    47   43   53 1   
    48   45   46 1   
    49   45   51 1   
    50   45   52 1   
    51   46   47 1   
    52   46   48 1   
    53   53   54 1   
    54   53   57 1   
    55   54   55 1   
    56   54   58 1   
    57   54   59 1   
    58   55   56 2   
    59   55   60 1   
    60   60   61 1   
    61   60   68 1   
    62   61   62 1   
    63   61   64 1   
    64   61   69 1   
    65   62   63 2   
    66   62   72 1   
    67   64   65 1   
    68   64   70 1   
    69   64   71 1   
    70   65   66 1   
    71   65   67 1   
    72   72   73 1   
    73   72   76 1   
    74   73   74 1   
    75   73   77 1   
    76   73   78 1   
    77   74   75 2   
    78   74   79 1   
    79   79   80 1   
    80   79   86 1   
    81   80   81 1   
    82   80   83 1   
    83   80   87 1   
    84   81   82 2   
    85   81   93 1   
    86   83   84 1   
    87   83   85 1   
    88   83   88 1   
    89   84   90 1   
    90   84   91 1   
    91   84   92 1   
    92   85   89 1   
    93   93   94 1   
    94   93  101 1   
    95   94   95 1   
    96   94   97 1   
    97   94  102 1   
    98   95   96 2   
    99   95  112 1   
   100   97   98 1   
   101   97   99 1   
   102   97  103 1   
   103   98  100 1   
   104   98  104 1   
   105   98  105 1   
   106   99  106 1   
   107   99  107 1   
   108   99  108 1   
   109  100  109 1   
   110  100  110 1   
   111  100  111 1   
   112  112  113 1   
   113  112  119 1   
   114  113  114 1   
   115  113  116 1   
   116  113  120 1   
   117  114  115 2   
   118  114  126 1   
   119  116  117 1   
   120  116  118 1   
   121  116  121 1   
   122  117  123 1   
   123  117  124 1   
   124  117  125 1   
   125  118  122 1   
   126  126  127 1   
   127  126  133 1   
   128  127  128 1   
   129  127  130 1   
   130  127  134 1   
   131  128  129 2   
   132  128  140 1   
   133  130  131 1   
   134  130  132 1   
   135  130  135 1   
   136  131  137 1   
   137  131  138 1   
   138  131  139 1   
   139  132  136 1   
   140  140  141 1   
   141  140  149 1   
   142  141  142 1   
   143  141  144 1   
   144  141  150 1   
   145  142  143 2   
   146  142  162 1   
   147  144  145 1   
   148  144  151 1   
   149  144  152 1   
   150  145  146 1   
   151  145  153 1   
   152  145  154 1   
   153  146  147 1   
   154  146  155 1   
   155  146  156 1   
   156  147  148 1   
   157  147  157 1   
   158  147  158 1   
   159  148  159 1   
   160  148  160 1   
   161  148  161 1   
   162  162  163 1   
   163  162  171 1   
   164  163  164 1   
   165  163  166 1   
   166  163  172 1   
   167  164  165 2   
   168  164  177 1   
   169  166  167 1   
   170  166  173 1   
   171  166  174 1   
   172  167  168 1   
   173  167  175 1   
   174  167  176 1   
   175  168  169 1   
   176  168  170 1   
   177  177  178 1   
   178  177  182 1   
   179  178  179 1   
   180  178  180 1   
   181  178  181 1   
   182  184  185 1   
   183  184  186 1   
   184  187  188 1   
   185  187  189 1   
   186  190  191 1   
   187  190  192 1   
   188  193  194 1   
   189  193  195 1   
@<TRIPOS>SUBSTRUCTURE
     1 MOL         1 TEMP              0 ****  ****    0 ROOT
