@<TRIPOS>MOLECULE
MOL
  195   189     1     0     0
SMALL
resp


@<TRIPOS>ATOM
      1 C1         -4.3540   -3.6320    3.2480 c3        1 MOL     -0.487940
      2 C2         -3.1910   -3.6110    2.2220 c         1 MOL      1.194581
      3 O1         -2.8530   -2.5670    1.7280 o         1 MOL     -0.575300
      4 H1         -4.2600   -2.7780    3.9190 hc        1 MOL      0.091979
      5 H2         -5.3050   -3.5760    2.7200 hc        1 MOL      0.091979
      6 H3         -4.3120   -4.5550    3.8270 hc        1 MOL      0.091979
      7 N1         -2.7830   -4.7870    1.6990 n         1 MOL     -1.350634
      8 C3         -1.7720   -4.9290    0.6220 c3        1 MOL      0.554216
      9 C4         -0.3770   -4.3120    0.9470 c         1 MOL      0.505611
     10 O2          0.4440   -4.0530    0.0820 o         1 MOL     -0.526555
     11 C5         -2.3450   -4.4790   -0.7370 c3        1 MOL     -1.121932
     12 C6         -3.8010   -4.8200   -1.1000 c         1 MOL      1.175271
     13 O3         -4.6290   -3.8760   -1.0810 o         1 MOL     -0.768657
     14 O4         -4.1600   -6.0150   -1.2230 o         1 MOL     -0.768657
     15 H4         -3.0810   -5.6580    2.1190 hn        1 MOL      0.455992
     16 H5         -1.4930   -5.9680    0.4650 h1        1 MOL      0.074521
     17 H6         -1.7120   -4.7980   -1.5740 hc        1 MOL      0.277049
     18 H7         -2.2450   -3.3890   -0.7570 hc        1 MOL      0.277049
     19 N2         -0.0620   -4.0690    2.2920 n         1 MOL     -0.623783
     20 C7          1.2300   -3.5090    2.8450 c3        1 MOL     -0.029545
     21 C8          2.2060   -4.6750    2.9660 c         1 MOL      0.515131
     22 O5          1.7590   -5.6940    3.5540 o         1 MOL     -0.602595
     23 C9          0.9030   -2.8500    4.2050 c3        1 MOL      0.037156
     24 C10        -0.2410   -1.8310    4.0750 c3        1 MOL     -0.112778
     25 C11         2.1350   -2.2270    4.8150 c3        1 MOL      0.136977
     26 C12        -0.7570   -1.2200    5.3690 c3        1 MOL     -0.448384
     27 H8         -0.6760   -4.4780    2.9740 hn        1 MOL      0.388271
     28 H9          1.7260   -2.8990    2.0950 h1        1 MOL      0.062476
     29 H10         0.5740   -3.6990    4.8160 hc        1 MOL      0.012078
     30 H11        -1.1410   -2.3000    3.6840 hc        1 MOL      0.098171
     31 H12         0.0130   -0.9990    3.4180 hc        1 MOL      0.098171
     32 H13         2.9440   -2.9310    5.0260 hc        1 MOL     -0.015872
     33 H14         2.5370   -1.3290    4.3400 hc        1 MOL     -0.015872
     34 H15         1.7700   -1.8830    5.7830 hc        1 MOL     -0.015872
     35 H16        -0.1100   -0.3870    5.6160 hc        1 MOL      0.114002
     36 H17        -1.7450   -0.7830    5.1820 hc        1 MOL      0.114002
     37 H18        -0.8870   -1.9410    6.1760 hc        1 MOL      0.114002
     38 N3          3.4600   -4.5520    2.5970 n         1 MOL     -0.267890
     39 C13         4.1800   -3.3250    2.2260 c3        1 MOL      0.042558
     40 C14         4.0530   -2.9470    0.8200 c         1 MOL      0.568000
     41 O6          4.3140   -1.8440    0.4290 o         1 MOL     -0.519992
     42 C15         5.5770   -3.4720    2.7100 c3        1 MOL     -0.117106
     43 C16         5.7180   -4.2080    4.0220 c         1 MOL      0.773147
     44 O7          5.6000   -3.4870    4.9960 o         1 MOL     -0.725972
     45 O8          5.9570   -5.4080    4.0200 o         1 MOL     -0.725972
     46 H19         4.0680   -5.3630    2.6200 hn        1 MOL      0.220326
     47 H20         3.8900   -2.4460    2.8050 h1        1 MOL      0.022708
     48 H21         5.9370   -2.4470    2.7990 hc        1 MOL     -0.016820
     49 H22         6.0220   -3.9880    1.8630 hc        1 MOL     -0.016820
     50 N4          3.6040   -3.8940   -0.0160 n         1 MOL     -0.277282
     51 C17         3.3960   -3.5780   -1.4440 c3        1 MOL     -0.185309
     52 C18         4.7070   -3.5010   -2.2030 c         1 MOL      0.533613
     53 O9          5.5540   -4.4160   -2.1210 o         1 MOL     -0.564346
     54 H23         3.5060   -4.8420    0.3260 hn        1 MOL      0.235673
     55 H24         2.8930   -2.6230   -1.6080 h1        1 MOL      0.107639
     56 H25         2.8040   -4.3080   -1.9830 h1        1 MOL      0.107639
     57 N5          4.9260   -2.4390   -3.0680 n         1 MOL     -0.481785
     58 C19         6.1800   -2.1160   -3.6480 c3        1 MOL      0.185834
     59 C20         7.2050   -1.4790   -2.6460 c         1 MOL      0.299827
     60 O10         8.3360   -1.0710   -3.0290 o         1 MOL     -0.571380
     61 C21         5.9690   -1.2450   -4.8430 c3        1 MOL     -0.323821
     62 C22         5.1270    0.0360   -4.5720 c         1 MOL      0.741733
     63 O11         4.7700    0.6960   -5.5740 o         1 MOL     -0.700602
     64 O12         4.9470    0.4700   -3.4140 o         1 MOL     -0.700602
     65 H26         4.2050   -1.7340   -3.1660 hn        1 MOL      0.273738
     66 H27         6.6710   -3.0360   -3.9690 h1        1 MOL      0.059521
     67 H28         5.5050   -1.8150   -5.6480 hc        1 MOL      0.068844
     68 H29         6.9010   -0.8570   -5.2700 hc        1 MOL      0.068844
     69 N6          6.7880   -1.2900   -1.4470 n         1 MOL      0.015000
     70 C23         7.6300   -0.8360   -0.3660 c3        1 MOL     -0.053795
     71 C24         7.6090    0.7000   -0.2720 c         1 MOL      0.404797
     72 O13         8.2260    1.2080    0.6330 o         1 MOL     -0.547698
     73 H30         5.8830   -1.6810   -1.2250 hn        1 MOL      0.097932
     74 H31         8.6630   -1.1950   -0.3300 h1        1 MOL      0.071212
     75 H32         7.1130   -1.1870    0.5280 h1        1 MOL      0.071212
     76 N7          6.7820    1.3710   -1.0690 n         1 MOL     -0.049229
     77 C25         6.5880    2.7890   -1.2010 c3        1 MOL     -0.009199
     78 C26         6.0500    3.4020    0.0820 c         1 MOL      0.353715
     79 O14         6.1140    4.6090    0.2940 o         1 MOL     -0.530523
     80 C27         7.8410    3.4310   -1.7450 c3        1 MOL     -0.040775
     81 C28         8.0970    2.9270   -3.1810 c3        1 MOL     -0.288503
     82 C29         9.4160    3.4860   -3.8400 c         1 MOL      0.725352
     83 N8          9.4610    3.7150   -5.1260 n         1 MOL     -0.834086
     84 O15        10.4550    3.6360   -3.1870 o         1 MOL     -0.593265
     85 H33         6.1780    0.8060   -1.6500 hn        1 MOL      0.115102
     86 H34         5.7560    2.9700   -1.8730 h1        1 MOL      0.098891
     87 H35         8.7740    3.3610   -1.1810 hc        1 MOL      0.044952
     88 H36         7.7560    4.5290   -1.7160 hc        1 MOL      0.044952
     89 H37         7.2410    3.1740   -3.8180 hc        1 MOL      0.114044
     90 H38         8.1260    1.8420   -3.1560 hc        1 MOL      0.114044
     91 H39         8.7600    3.4330   -5.7950 hn        1 MOL      0.353896
     92 H40        10.3350    3.9550   -5.5680 hn        1 MOL      0.353896
     93 N9          5.4430    2.6570    0.9880 n         1 MOL     -0.052489
     94 C30         4.8070    3.0220    2.2540 c3        1 MOL     -0.183883
     95 C31         3.3260    3.1850    2.1960 c         1 MOL      0.565871
     96 O16         2.7980    3.8210    3.1130 o         1 MOL     -0.541314
     97 C32         5.2100    2.0080    3.4150 c3        1 MOL      0.316806
     98 C33         5.0510    0.4580    3.1580 c3        1 MOL     -0.374091
     99 C34         6.7070    2.2170    3.9010 c3        1 MOL     -0.374091
    100 H41         5.2460    1.6900    0.7410 hn        1 MOL      0.099752
    101 H42         5.2510    3.9530    2.5870 h1        1 MOL      0.106215
    102 H43         4.7090    2.2920    4.3350 hc        1 MOL     -0.016429
    103 H44         5.2620   -0.1170    4.0620 hc        1 MOL      0.091935
    104 H45         4.0120    0.2060    2.9190 hc        1 MOL      0.091935
    105 H46         5.6280    0.0550    2.3260 hc        1 MOL      0.091935
    106 H47         6.8970    1.5800    4.7600 hc        1 MOL      0.091935
    107 H48         7.4000    2.0890    3.0690 hc        1 MOL      0.091935
    108 H49         6.7410    3.2530    4.2410 hc        1 MOL      0.091935
    109 N10         2.7740    2.3380    1.2810 n         1 MOL     -0.485040
    110 C35         1.3710    2.1570    1.2300 c3        1 MOL      0.122816
    111 C36         0.8310    3.3480    0.4070 c         1 MOL      0.505959
    112 O17         1.5500    4.1360   -0.1970 o         1 MOL     -0.520329
    113 C37         0.9770    0.7430    0.7150 c3        1 MOL      0.088103
    114 C38        -0.4230    0.2580    1.0860 c         1 MOL      0.531686
    115 N11        -0.9240   -0.7490    0.4600 n         1 MOL     -0.567736
    116 O18        -1.1040    0.8260    1.8710 o         1 MOL     -0.537901
    117 H50         3.4050    1.8710    0.6440 hn        1 MOL      0.250316
    118 H51         0.9880    2.1760    2.2580 h1        1 MOL      0.031025
    119 H52         1.6990    0.0090    1.0790 hc        1 MOL     -0.008267
    120 H53         1.0940    0.7450   -0.3610 hc        1 MOL     -0.008267
    121 H54        -0.4740   -1.2190   -0.3170 hn        1 MOL      0.285536
    122 H55        -1.8230   -1.0830    0.7600 hn        1 MOL      0.285536
    123 N12        -0.4730    3.4370    0.3670 n         1 MOL     -0.392089
    124 C39        -1.2490    4.5210   -0.3760 c3        1 MOL      0.112406
    125 C40        -2.7280    4.6250    0.0410 c         1 MOL      0.545739
    126 O19        -3.0690    3.6560    0.7560 o         1 MOL     -0.544260
    127 C41        -1.1280    4.1370   -1.8770 c3        1 MOL     -0.188486
    128 C42        -1.8720    2.9050   -2.3670 ca        1 MOL      0.147285
    129 C43        -1.1070    1.7350   -2.4870 ca        1 MOL     -0.176432
    130 C44        -3.1810    2.9570   -2.7510 ca        1 MOL     -0.176432
    131 C45        -1.6830    0.5320   -2.9170 ca        1 MOL     -0.173264
    132 C46        -3.8050    1.8320   -3.3240 ca        1 MOL     -0.173264
    133 C47        -2.9950    0.6250   -3.4150 ca        1 MOL      0.149074
    134 O20        -3.6240   -0.4490   -3.9500 oh        1 MOL     -0.433365
    135 H56        -1.0650    2.8120    0.8930 hn        1 MOL      0.229021
    136 H57        -0.6890    5.4390   -0.2150 h1        1 MOL      0.058786
    137 H58        -0.1000    4.1250   -2.2230 hc        1 MOL      0.048697
    138 H59        -1.6010    4.9610   -2.4210 hc        1 MOL      0.048697
    139 H60        -0.0510    1.7160   -2.2920 ha        1 MOL      0.139145
    140 H61        -3.6950    3.9000   -2.6220 ha        1 MOL      0.139145
    141 H62        -1.2110   -0.4350   -2.8980 ha        1 MOL      0.096431
    142 H63        -4.8670    1.7950   -3.5380 ha        1 MOL      0.096431
    143 H64        -3.0080   -1.1830   -3.9850 ho        1 MOL      0.373040
    144 N13        -3.5260    5.6420   -0.2120 n         1 MOL     -0.454696
    145 C48        -4.9200    5.7040    0.3290 c3        1 MOL      0.149035
    146 C49        -5.8850    5.5230   -0.8460 c         1 MOL      0.454423
    147 O21        -5.9150    6.3450   -1.7230 o         1 MOL     -0.569970
    148 C50        -5.0490    6.9310    1.2190 c3        1 MOL      0.040611
    149 C51        -4.1890    6.8180    2.5110 c3        1 MOL     -0.198109
    150 C52        -4.1410    8.1730    3.3390 c         1 MOL      0.665524
    151 O22        -4.7550    8.2680    4.4390 o         1 MOL     -0.622406
    152 O23        -3.6110    9.1910    2.8190 o         1 MOL     -0.622406
    153 H65        -3.0750    6.4410   -0.6110 hn        1 MOL      0.288792
    154 H66        -5.0050    4.8700    1.0280 h1        1 MOL      0.053073
    155 H67        -6.1110    7.1100    1.4180 hc        1 MOL      0.017051
    156 H68        -4.6880    7.8020    0.6680 hc        1 MOL      0.017051
    157 H69        -3.1500    6.5660    2.2950 hc        1 MOL      0.042361
    158 H70        -4.5850    6.0520    3.1780 hc        1 MOL      0.042361
    159 N14        -6.6550    4.4550   -0.9320 n         1 MOL     -0.345744
    160 C53        -6.5500    3.2000   -0.2860 c3        1 MOL     -0.061871
    161 C54        -7.1460    3.1450    1.0980 c         1 MOL      0.519958
    162 O24        -7.7910    4.1270    1.5210 o         1 MOL     -0.533057
    163 C55        -7.0830    2.0950   -1.1780 c3        1 MOL     -0.270305
    164 C56        -8.5990    2.2430   -1.3900 c3        1 MOL     -0.052767
    165 C57        -9.2240    1.2740   -2.3290 c         1 MOL      0.541145
    166 O25       -10.0230    1.6880   -3.2390 o         1 MOL     -0.659640
    167 O26        -8.9070    0.0500   -2.1360 o         1 MOL     -0.659640
    168 H71        -7.2410    4.3620   -1.7590 hn        1 MOL      0.285531
    169 H72        -5.4710    3.0410   -0.1680 h1        1 MOL      0.066836
    170 H73        -6.8000    1.1260   -0.7500 hc        1 MOL      0.129168
    171 H74        -6.5630    2.1580   -2.1280 hc        1 MOL      0.129168
    172 H75        -8.9830    3.2410   -1.5990 hc        1 MOL      0.022674
    173 H76        -9.1580    2.0700   -0.4630 hc        1 MOL      0.022674
    174 N15        -6.8290    2.1060    1.8180 n         1 MOL     -0.281030
    175 C58        -7.2350    1.9490    3.2430 c3        1 MOL     -0.399253
    176 H77        -6.8020    2.7560    3.8340 h1        1 MOL      0.152772
    177 H78        -8.3220    1.9880    3.3170 h1        1 MOL      0.152772
    178 H79        -6.8790    0.9910    3.6190 h1        1 MOL      0.152772
    179 H80        -6.3390    1.3130    1.4330 hn        1 MOL      0.290315
    180 Ca1        -6.7780   -5.5730   -1.1780 Ca        1 MOL      1.607163
    181 O27        -6.2710   -4.0770   -3.2350 oh        1 MOL     -0.919540
    182 H81        -7.0570   -3.5440   -3.3150 ho        1 MOL      0.432550
    183 H82        -5.7220   -3.8090   -3.9770 ho        1 MOL      0.432550
    184 O28        -7.8890   -3.1970   -0.7800 oh        1 MOL     -0.919540
    185 H83        -7.3430   -2.5690   -0.3090 ho        1 MOL      0.432550
    186 H84        -8.2620   -2.6900   -1.5130 ho        1 MOL      0.432550
    187 O29        -9.0580   -5.2670   -2.7960 oh        1 MOL     -0.919540
    188 H85        -9.6420   -6.0030   -2.9710 ho        1 MOL      0.432550
    189 H86        -9.1670   -4.6750   -3.5390 ho        1 MOL      0.432550
    190 O30        -6.6540   -7.4350   -3.1430 oh        1 MOL     -0.919540
    191 H87        -6.7030   -8.3780   -3.0440 ho        1 MOL      0.432550
    192 H88        -6.2710   -7.3030   -4.0160 ho        1 MOL      0.432550
    193 O31        -6.1320   -7.9860   -0.1200 oh        1 MOL     -0.919540
    194 H89        -6.4670   -8.8170    0.2290 ho        1 MOL      0.432550
    195 H90        -5.2910   -7.8780    0.3280 ho        1 MOL      0.432550
@<TRIPOS>BOND
     1    1    2 1   
     2    1    4 1   
     3    1    5 1   
     4    1    6 1   
     5    2    3 2   
     6    2    7 1   
     7    7    8 1   
     8    7   15 1   
     9    8    9 1   
    10    8   11 1   
    11    8   16 1   
    12    9   10 2   
    13    9   19 1   
    14   11   12 1   
    15   11   17 1   
    16   11   18 1   
    17   12   13 1   
    18   12   14 1   
    19   19   20 1   
    20   19   27 1   
    21   20   21 1   
    22   20   23 1   
    23   20   28 1   
    24   21   22 2   
    25   21   38 1   
    26   23   24 1   
    27   23   25 1   
    28   23   29 1   
    29   24   26 1   
    30   24   30 1   
    31   24   31 1   
    32   25   32 1   
    33   25   33 1   
    34   25   34 1   
    35   26   35 1   
    36   26   36 1   
    37   26   37 1   
    38   38   39 1   
    39   38   46 1   
    40   39   40 1   
    41   39   42 1   
    42   39   47 1   
    43   40   41 2   
    44   40   50 1   
    45   42   43 1   
    46   42   48 1   
    47   42   49 1   
    48   43   44 1   
    49   43   45 1   
    50   50   51 1   
    51   50   54 1   
    52   51   52 1   
    53   51   55 1   
    54   51   56 1   
    55   52   53 2   
    56   52   57 1   
    57   57   58 1   
    58   57   65 1   
    59   58   59 1   
    60   58   61 1   
    61   58   66 1   
    62   59   60 2   
    63   59   69 1   
    64   61   62 1   
    65   61   67 1   
    66   61   68 1   
    67   62   63 1   
    68   62   64 1   
    69   69   70 1   
    70   69   73 1   
    71   70   71 1   
    72   70   74 1   
    73   70   75 1   
    74   71   72 2   
    75   71   76 1   
    76   76   77 1   
    77   76   85 1   
    78   77   78 1   
    79   77   80 1   
    80   77   86 1   
    81   78   79 2   
    82   78   93 1   
    83   80   81 1   
    84   80   87 1   
    85   80   88 1   
    86   81   82 1   
    87   81   89 1   
    88   81   90 1   
    89   82   83 1   
    90   82   84 2   
    91   83   91 1   
    92   83   92 1   
    93   93   94 1   
    94   93  100 1   
    95   94   95 1   
    96   94   97 1   
    97   94  101 1   
    98   95   96 2   
    99   95  109 1   
   100   97   98 1   
   101   97   99 1   
   102   97  102 1   
   103   98  103 1   
   104   98  104 1   
   105   98  105 1   
   106   99  106 1   
   107   99  107 1   
   108   99  108 1   
   109  109  110 1   
   110  109  117 1   
   111  110  111 1   
   112  110  113 1   
   113  110  118 1   
   114  111  112 2   
   115  111  123 1   
   116  113  114 1   
   117  113  119 1   
   118  113  120 1   
   119  114  115 1   
   120  114  116 2   
   121  115  121 1   
   122  115  122 1   
   123  123  124 1   
   124  123  135 1   
   125  124  125 1   
   126  124  127 1   
   127  124  136 1   
   128  125  126 2   
   129  125  144 1   
   130  127  128 1   
   131  127  137 1   
   132  127  138 1   
   133  128  129 ar  
   134  128  130 ar  
   135  129  131 ar  
   136  129  139 1   
   137  130  132 ar  
   138  130  140 1   
   139  131  133 ar  
   140  131  141 1   
   141  132  133 ar  
   142  132  142 1   
   143  133  134 1   
   144  134  143 1   
   145  144  145 1   
   146  144  153 1   
   147  145  146 1   
   148  145  148 1   
   149  145  154 1   
   150  146  147 2   
   151  146  159 1   
   152  148  149 1   
   153  148  155 1   
   154  148  156 1   
   155  149  150 1   
   156  149  157 1   
   157  149  158 1   
   158  150  151 1   
   159  150  152 1   
   160  159  160 1   
   161  159  168 1   
   162  160  161 1   
   163  160  163 1   
   164  160  169 1   
   165  161  162 2   
   166  161  174 1   
   167  163  164 1   
   168  163  170 1   
   169  163  171 1   
   170  164  165 1   
   171  164  172 1   
   172  164  173 1   
   173  165  166 1   
   174  165  167 1   
   175  174  175 1   
   176  174  179 1   
   177  175  176 1   
   178  175  177 1   
   179  175  178 1   
   180  181  182 1   
   181  181  183 1   
   182  184  185 1   
   183  184  186 1   
   184  187  188 1   
   185  187  189 1   
   186  190  191 1   
   187  190  192 1   
   188  193  194 1   
   189  193  195 1   
@<TRIPOS>SUBSTRUCTURE
     1 MOL         1 TEMP              0 ****  ****    0 ROOT
