@<TRIPOS>MOLECULE
MOL
  201   193     1     0     0
SMALL
resp


@<TRIPOS>ATOM
      1 C1         -3.6260   -4.7520    1.9420 c3        1 MOL     -0.647394
      2 C2         -2.4290   -4.3170    1.0690 c         1 MOL      0.906663
      3 O1         -1.9570   -3.2440    1.1950 o         1 MOL     -0.515770
      4 H1         -4.4670   -4.0820    1.7640 hc        1 MOL      0.104613
      5 H2         -3.9130   -5.7710    1.6830 hc        1 MOL      0.104613
      6 H3         -3.3430   -4.7090    2.9940 hc        1 MOL      0.104613
      7 N1         -1.9530   -5.1460    0.1190 n         1 MOL     -0.683331
      8 C3         -0.7860   -4.9660   -0.8030 c3        1 MOL     -0.158662
      9 C4          0.6570   -4.7420   -0.2730 c         1 MOL      0.658104
     10 O2          1.5620   -4.3970   -1.0490 o         1 MOL     -0.511490
     11 C5         -1.1320   -3.8910   -1.8480 c3        1 MOL     -0.290295
     12 C6         -2.4230   -4.1150   -2.5860 c         1 MOL      0.770719
     13 O3         -2.5070   -4.9390   -3.5610 o         1 MOL     -0.686485
     14 O4         -3.4260   -3.4140   -2.3460 o         1 MOL     -0.686485
     15 H4         -2.4080   -6.0240   -0.0630 hn        1 MOL      0.386713
     16 H5         -0.9060   -5.8870   -1.3600 h1        1 MOL      0.112697
     17 H6         -0.3850   -3.6600   -2.6060 hc        1 MOL      0.110063
     18 H7         -1.2850   -2.9960   -1.2410 hc        1 MOL      0.110063
     19 N2          0.8940   -4.8380    1.0790 n         1 MOL     -0.486861
     20 C7          2.1450   -4.3950    1.7340 c3        1 MOL     -0.054267
     21 C8          3.3240   -5.3900    1.6050 c         1 MOL      0.439706
     22 O5          3.0520   -6.6090    1.5810 o         1 MOL     -0.565409
     23 C9          1.8350   -4.0240    3.2500 c3        1 MOL      0.147640
     24 C10         1.8850   -5.2870    4.2090 c3        1 MOL      0.272636
     25 C11         0.4480   -3.3270    3.4370 c3        1 MOL     -0.668655
     26 C12         1.4640   -4.9730    5.6470 c3        1 MOL     -0.348260
     27 H8          0.1080   -5.1040    1.6530 hn        1 MOL      0.294631
     28 H9          2.4330   -3.4740    1.2430 h1        1 MOL      0.079790
     29 H10         2.6390   -3.4480    3.7060 hc        1 MOL      0.020200
     30 H11         2.8850   -5.7060    4.1060 hc        1 MOL     -0.048320
     31 H12         1.1640   -5.9670    3.7660 hc        1 MOL     -0.048320
     32 H13         0.3570   -2.6130    2.6150 hc        1 MOL      0.185138
     33 H14        -0.3700   -4.0280    3.2810 hc        1 MOL      0.185138
     34 H15         0.3030   -2.8680    4.4160 hc        1 MOL      0.185138
     35 H16         0.3880   -4.7650    5.6750 hc        1 MOL      0.071845
     36 H17         1.6330   -5.7630    6.3730 hc        1 MOL      0.071845
     37 H18         1.8980   -4.0480    6.0350 hc        1 MOL      0.071845
     38 N3          4.5950   -4.9990    1.6440 n         1 MOL     -0.313895
     39 C13         5.0960   -3.6390    1.5560 c3        1 MOL      0.042539
     40 C14         5.2800   -3.1950    0.0470 c         1 MOL      0.544990
     41 O6          5.2850   -2.0040   -0.1640 o         1 MOL     -0.552195
     42 C15         6.4680   -3.4940    2.2630 c3        1 MOL     -0.289930
     43 C16         7.5840   -4.5910    1.8680 c         1 MOL      0.691296
     44 O7          8.7840   -4.2250    2.0800 o         1 MOL     -0.684594
     45 O8          7.2810   -5.7330    1.5400 o         1 MOL     -0.684594
     46 H19         5.2820   -5.7130    1.4600 hn        1 MOL      0.249432
     47 H20         4.4220   -2.8800    1.9580 h1        1 MOL      0.049414
     48 H21         6.1410   -3.4920    3.3100 hc        1 MOL      0.063535
     49 H22         6.8290   -2.4730    2.1090 hc        1 MOL      0.063535
     50 N4          5.4020   -4.1480   -0.9310 n         1 MOL     -0.345849
     51 C17         5.4490   -3.8560   -2.2820 c3        1 MOL     -0.042532
     52 C18         6.6110   -3.0360   -2.7960 c         1 MOL      0.505386
     53 O9          7.6910   -3.4990   -3.0200 o         1 MOL     -0.558068
     54 H23         5.2410   -5.1130   -0.7070 hn        1 MOL      0.302674
     55 H24         4.6420   -3.2180   -2.6440 h1        1 MOL      0.042741
     56 H25         5.4280   -4.7880   -2.8390 h1        1 MOL      0.042741
     57 N5          6.3580   -1.7480   -2.8580 n         1 MOL     -0.476895
     58 C19         7.3850   -0.7090   -3.2410 c3        1 MOL      0.261333
     59 C20         8.1510   -0.1210   -2.0470 c         1 MOL      0.310341
     60 O10         9.1440    0.5890   -2.3070 o         1 MOL     -0.534495
     61 C21         6.7640    0.3900   -4.0630 c3        1 MOL     -0.571399
     62 C22         5.6630    1.2780   -3.4350 c         1 MOL      0.851025
     63 O11         5.1180    1.1180   -2.3580 o         1 MOL     -0.694464
     64 O12         5.1970    2.1980   -4.1750 o         1 MOL     -0.694464
     65 H26         5.3980   -1.4870   -2.6630 hn        1 MOL      0.325810
     66 H27         8.1360   -1.2490   -3.8090 h1        1 MOL      0.067358
     67 H28         6.3580   -0.1390   -4.9340 hc        1 MOL      0.125277
     68 H29         7.6110    1.0020   -4.3600 hc        1 MOL      0.125277
     69 N6          7.7180   -0.4490   -0.8430 n         1 MOL     -0.100484
     70 C23         8.0860    0.1690    0.4080 c3        1 MOL     -0.438329
     71 C24         7.6540    1.6190    0.5960 c         1 MOL      0.576077
     72 O13         8.1750    2.2460    1.5160 o         1 MOL     -0.603160
     73 H30         6.9030   -1.0590   -0.8540 hn        1 MOL      0.257618
     74 H31         9.1710    0.1710    0.5140 h1        1 MOL      0.175203
     75 H32         7.5500   -0.3380    1.2150 h1        1 MOL      0.175203
     76 N7          6.8920    2.2140   -0.3510 n         1 MOL      0.012768
     77 C25         6.4400    3.6260   -0.4170 c3        1 MOL      0.075276
     78 C26         5.4510    3.9700    0.8070 c         1 MOL      0.240452
     79 O14         4.9620    5.0900    0.8700 o         1 MOL     -0.460024
     80 C27         7.6720    4.5590   -0.5670 c3        1 MOL     -0.039529
     81 C28         8.3860    4.2990   -1.8920 c3        1 MOL     -0.030413
     82 C29         9.3810    5.4100   -2.4010 c         1 MOL      0.625893
     83 N8          9.9140    5.0770   -3.5410 n         1 MOL     -0.781788
     84 O15         9.6270    6.4760   -1.8570 o         1 MOL     -0.575595
     85 H33         6.3980    1.6360   -1.0150 hn        1 MOL      0.011324
     86 H34         5.8860    3.7390   -1.3470 h1        1 MOL      0.099035
     87 H35         8.4420    4.3800    0.1880 hc        1 MOL      0.016175
     88 H36         7.3910    5.6080   -0.5510 hc        1 MOL      0.016175
     89 H37         7.6910    4.1380   -2.7060 hc        1 MOL      0.018515
     90 H38         8.9250    3.3400   -1.8560 hc        1 MOL      0.018515
     91 H39         9.7910    4.1790   -3.9820 hn        1 MOL      0.343256
     92 H40        10.5250    5.7120   -4.0470 hn        1 MOL      0.343256
     93 N9          5.1560    3.0400    1.7480 n         1 MOL     -0.064460
     94 C30         4.4020    3.2440    2.9620 c3        1 MOL     -0.164317
     95 C31         2.9520    3.2450    2.7070 c         1 MOL      0.536823
     96 O16         2.1910    3.8200    3.4870 o         1 MOL     -0.581271
     97 C32         4.7870    2.1980    4.0600 c3        1 MOL      0.197659
     98 C33         4.6490    0.7290    3.6740 c3        1 MOL     -0.236897
     99 C34         6.1380    2.5490    4.6440 c3        1 MOL     -0.236897
    100 H41         5.4860    2.1080    1.5510 hn        1 MOL      0.121395
    101 H42         4.5900    4.2150    3.4210 h1        1 MOL      0.118654
    102 H43         4.0840    2.3410    4.8890 hc        1 MOL     -0.001825
    103 H44         5.4400    0.4600    2.9820 hc        1 MOL      0.053720
    104 H45         4.6760    0.0910    4.5550 hc        1 MOL      0.053720
    105 H46         3.7680    0.4990    3.0760 hc        1 MOL      0.053720
    106 H47         6.9000    2.5590    3.8560 hc        1 MOL      0.053720
    107 H48         6.1440    3.5710    5.0280 hc        1 MOL      0.053720
    108 H49         6.5140    1.8370    5.3740 hc        1 MOL      0.053720
    109 N10         2.5820    2.5270    1.6730 n         1 MOL     -0.340972
    110 C35         1.1840    2.1600    1.3870 c3        1 MOL      0.148935
    111 C36         0.5560    3.2840    0.4960 c         1 MOL      0.556745
    112 O17         1.2440    4.1450   -0.0450 o         1 MOL     -0.513982
    113 C37         1.1340    0.7540    0.9620 c3        1 MOL     -0.159618
    114 C38        -0.2320    0.0630    1.0090 c         1 MOL      0.596163
    115 N11        -0.2360   -1.1310    0.4580 n         1 MOL     -0.536467
    116 O18        -1.2200    0.5310    1.5020 o         1 MOL     -0.537217
    117 H50         3.3160    2.0610    1.1780 hn        1 MOL      0.216010
    118 H51         0.7050    2.0810    2.3570 h1        1 MOL      0.011233
    119 H52         1.8700    0.1580    1.5180 hc        1 MOL      0.050137
    120 H53         1.4150    0.7860   -0.0840 hc        1 MOL      0.050137
    121 H54         0.6530   -1.3860    0.0540 hn        1 MOL      0.270817
    122 H55        -0.9700   -1.7850    0.6990 hn        1 MOL      0.270817
    123 N12        -0.7580    3.2010    0.3920 n         1 MOL     -0.514359
    124 C39        -1.5460    4.1630   -0.4650 c3        1 MOL      0.144848
    125 C40        -2.9330    4.3620    0.1720 c         1 MOL      0.634551
    126 O19        -3.4680    3.4460    0.7890 o         1 MOL     -0.534165
    127 C41        -1.6080    3.5680   -1.8720 c3        1 MOL     -0.140514
    128 C42        -2.3990    2.2960   -2.0480 ca        1 MOL      0.060958
    129 C43        -1.8460    0.9750   -2.0270 ca        1 MOL     -0.134554
    130 C44        -3.7480    2.4050   -2.4980 ca        1 MOL     -0.134554
    131 C45        -2.5650   -0.1590   -2.3290 ca        1 MOL     -0.350077
    132 C46        -4.4800    1.2790   -2.8850 ca        1 MOL     -0.350077
    133 C47        -3.9240   -0.0090   -2.7690 ca        1 MOL      0.492422
    134 O20        -4.6220   -1.1250   -3.0940 oh        1 MOL     -0.597029
    135 H56        -1.3170    2.5710    0.9330 hn        1 MOL      0.237868
    136 H57        -1.0090    5.0970   -0.6200 h1        1 MOL      0.049274
    137 H58        -0.5970    3.4080   -2.2320 hc        1 MOL      0.064964
    138 H59        -2.0430    4.3410   -2.5030 hc        1 MOL      0.064964
    139 H60        -0.8010    0.8890   -1.7690 ha        1 MOL      0.114803
    140 H61        -4.1950    3.3840   -2.5910 ha        1 MOL      0.114803
    141 H62        -2.0590   -1.1110   -2.3870 ha        1 MOL      0.165648
    142 H63        -5.5110    1.4480   -3.1510 ha        1 MOL      0.165648
    143 H64        -4.1980   -1.9530   -2.8650 ho        1 MOL      0.400209
    144 N13        -3.5970    5.4430   -0.1670 n         1 MOL     -0.765167
    145 C48        -5.0030    5.5980    0.2040 c3        1 MOL      0.165823
    146 C49        -5.8530    5.2930   -1.0540 c         1 MOL      0.657858
    147 O21        -6.0540    6.1430   -1.8360 o         1 MOL     -0.580974
    148 C50        -5.2240    7.0150    0.7320 c3        1 MOL      0.082243
    149 C51        -6.5660    7.2350    1.3390 c3        1 MOL     -0.289282
    150 C52        -6.6830    8.6270    1.9610 c         1 MOL      0.734085
    151 O22        -6.6530    9.6440    1.2840 o         1 MOL     -0.665387
    152 O23        -6.7730    8.6860    3.1940 o         1 MOL     -0.665387
    153 H65        -3.1850    6.0880   -0.8180 hn        1 MOL      0.361163
    154 H66        -5.1770    4.8590    0.9890 h1        1 MOL      0.073720
    155 H67        -4.9810    7.8070    0.0220 hc        1 MOL      0.016668
    156 H68        -4.5200    7.1870    1.5490 hc        1 MOL      0.016668
    157 H69        -6.8290    6.5430    2.1310 hc        1 MOL      0.054701
    158 H70        -7.2410    7.2070    0.4840 hc        1 MOL      0.054701
    159 N14        -6.5620    4.1850   -1.2250 n         1 MOL     -0.514944
    160 C53        -6.6490    2.9610   -0.4410 c3        1 MOL     -0.089728
    161 C54        -7.0840    3.1070    1.0170 c         1 MOL      0.542661
    162 O24        -8.0180    3.8610    1.2360 o         1 MOL     -0.539312
    163 C55        -7.6830    2.0060   -1.1590 c3        1 MOL     -0.020258
    164 C56        -7.5820    0.5680   -0.4710 c3        1 MOL     -0.534788
    165 C57        -8.3440   -0.4200   -1.4070 c         1 MOL      0.817491
    166 O25        -9.2550    0.0520   -2.1410 o         1 MOL     -0.692365
    167 O26        -7.9170   -1.5950   -1.6160 o         1 MOL     -0.692365
    168 H71        -6.9340    4.0910   -2.1680 hn        1 MOL      0.283243
    169 H72        -5.6700    2.5020   -0.5430 h1        1 MOL      0.093218
    170 H73        -7.6130    1.7750   -2.2190 hc        1 MOL      0.087831
    171 H74        -8.7060    2.3620   -1.0570 hc        1 MOL      0.087831
    172 H75        -7.9810    0.5350    0.5400 hc        1 MOL      0.102694
    173 H76        -6.5510    0.2170   -0.4870 hc        1 MOL      0.102694
    174 N15        -6.3970    2.4130    1.9350 n         1 MOL     -0.236903
    175 C58        -6.5880    2.3750    3.4140 c3        1 MOL     -0.215153
    176 H77        -7.6540    2.3540    3.6420 h1        1 MOL      0.102447
    177 H78        -6.1120    1.4820    3.8200 h1        1 MOL      0.102447
    178 H79        -6.1380    3.2620    3.8620 h1        1 MOL      0.102447
    179 H80        -5.6350    1.8910    1.5260 hn        1 MOL      0.248889
    180 Ca1        -7.7510   -3.9750   -0.3670 Ca        1 MOL      1.600542
    181 O27        -5.3460   -2.8340   -0.5300 oh        1 MOL     -0.751706
    182 H81        -5.3420   -1.9010   -0.3330 ho        1 MOL      0.359370
    183 H82        -4.7150   -2.9380   -1.2430 ho        1 MOL      0.359370
    184 O28        -8.3580   -6.5220   -0.6530 oh        1 MOL     -0.751706
    185 H83        -7.5280   -6.9980   -0.7440 ho        1 MOL      0.359370
    186 H84        -9.0260   -7.1960   -0.7280 ho        1 MOL      0.359370
    187 O29        -8.3540   -4.2160   -2.9050 oh        1 MOL     -0.751706
    188 H85        -8.0360   -3.4730   -3.4230 ho        1 MOL      0.359370
    189 H86        -8.4660   -4.9210   -3.5300 ho        1 MOL      0.359370
    190 O30        -8.1620   -2.0850    1.8270 oh        1 MOL     -0.751706
    191 H87        -7.3470   -1.8490    2.2660 ho        1 MOL      0.359370
    192 H88        -8.8040   -1.4630    2.1740 ho        1 MOL      0.359370
    193 O31        -9.3010   -5.0060    1.7330 oh        1 MOL     -0.751706
    194 H89        -8.8220   -4.4290    2.3160 ho        1 MOL      0.359370
    195 H90        -9.0510   -5.8870    2.0030 ho        1 MOL      0.359370
    196 O32        -5.6630   -5.6450   -1.6240 oh        1 MOL     -0.751706
    197 H91        -4.9780   -5.1100   -2.0180 ho        1 MOL      0.359370
    198 H92        -5.3600   -6.5480   -1.7270 ho        1 MOL      0.359370
    199 O33       -10.4700   -3.4330   -0.7020 oh        1 MOL     -0.751706
    200 H93       -10.7240   -3.5330   -1.6220 ho        1 MOL      0.359370
    201 H94       -10.8220   -2.5830   -0.4500 ho        1 MOL      0.359370
@<TRIPOS>BOND
     1    1    2 1   
     2    1    4 1   
     3    1    5 1   
     4    1    6 1   
     5    2    3 2   
     6    2    7 1   
     7    7    8 1   
     8    7   15 1   
     9    8    9 1   
    10    8   11 1   
    11    8   16 1   
    12    9   10 2   
    13    9   19 1   
    14   11   12 1   
    15   11   17 1   
    16   11   18 1   
    17   12   13 1   
    18   12   14 1   
    19   19   20 1   
    20   19   27 1   
    21   20   21 1   
    22   20   23 1   
    23   20   28 1   
    24   21   22 2   
    25   21   38 1   
    26   23   24 1   
    27   23   25 1   
    28   23   29 1   
    29   24   26 1   
    30   24   30 1   
    31   24   31 1   
    32   25   32 1   
    33   25   33 1   
    34   25   34 1   
    35   26   35 1   
    36   26   36 1   
    37   26   37 1   
    38   38   39 1   
    39   38   46 1   
    40   39   40 1   
    41   39   42 1   
    42   39   47 1   
    43   40   41 2   
    44   40   50 1   
    45   42   43 1   
    46   42   48 1   
    47   42   49 1   
    48   43   44 1   
    49   43   45 1   
    50   50   51 1   
    51   50   54 1   
    52   51   52 1   
    53   51   55 1   
    54   51   56 1   
    55   52   53 2   
    56   52   57 1   
    57   57   58 1   
    58   57   65 1   
    59   58   59 1   
    60   58   61 1   
    61   58   66 1   
    62   59   60 2   
    63   59   69 1   
    64   61   62 1   
    65   61   67 1   
    66   61   68 1   
    67   62   63 1   
    68   62   64 1   
    69   69   70 1   
    70   69   73 1   
    71   70   71 1   
    72   70   74 1   
    73   70   75 1   
    74   71   72 2   
    75   71   76 1   
    76   76   77 1   
    77   76   85 1   
    78   77   78 1   
    79   77   80 1   
    80   77   86 1   
    81   78   79 2   
    82   78   93 1   
    83   80   81 1   
    84   80   87 1   
    85   80   88 1   
    86   81   82 1   
    87   81   89 1   
    88   81   90 1   
    89   82   83 1   
    90   82   84 2   
    91   83   91 1   
    92   83   92 1   
    93   93   94 1   
    94   93  100 1   
    95   94   95 1   
    96   94   97 1   
    97   94  101 1   
    98   95   96 2   
    99   95  109 1   
   100   97   98 1   
   101   97   99 1   
   102   97  102 1   
   103   98  103 1   
   104   98  104 1   
   105   98  105 1   
   106   99  106 1   
   107   99  107 1   
   108   99  108 1   
   109  109  110 1   
   110  109  117 1   
   111  110  111 1   
   112  110  113 1   
   113  110  118 1   
   114  111  112 2   
   115  111  123 1   
   116  113  114 1   
   117  113  119 1   
   118  113  120 1   
   119  114  115 1   
   120  114  116 2   
   121  115  121 1   
   122  115  122 1   
   123  123  124 1   
   124  123  135 1   
   125  124  125 1   
   126  124  127 1   
   127  124  136 1   
   128  125  126 2   
   129  125  144 1   
   130  127  128 1   
   131  127  137 1   
   132  127  138 1   
   133  128  129 ar  
   134  128  130 ar  
   135  129  131 ar  
   136  129  139 1   
   137  130  132 ar  
   138  130  140 1   
   139  131  133 ar  
   140  131  141 1   
   141  132  133 ar  
   142  132  142 1   
   143  133  134 1   
   144  134  143 1   
   145  144  145 1   
   146  144  153 1   
   147  145  146 1   
   148  145  148 1   
   149  145  154 1   
   150  146  147 2   
   151  146  159 1   
   152  148  149 1   
   153  148  155 1   
   154  148  156 1   
   155  149  150 1   
   156  149  157 1   
   157  149  158 1   
   158  150  151 1   
   159  150  152 1   
   160  159  160 1   
   161  159  168 1   
   162  160  161 1   
   163  160  163 1   
   164  160  169 1   
   165  161  162 2   
   166  161  174 1   
   167  163  164 1   
   168  163  170 1   
   169  163  171 1   
   170  164  165 1   
   171  164  172 1   
   172  164  173 1   
   173  165  166 1   
   174  165  167 1   
   175  174  175 1   
   176  174  179 1   
   177  175  176 1   
   178  175  177 1   
   179  175  178 1   
   180  181  182 1   
   181  181  183 1   
   182  184  185 1   
   183  184  186 1   
   184  187  188 1   
   185  187  189 1   
   186  190  191 1   
   187  190  192 1   
   188  193  194 1   
   189  193  195 1   
   190  196  197 1   
   191  196  198 1   
   192  199  200 1   
   193  199  201 1   
@<TRIPOS>SUBSTRUCTURE
     1 MOL         1 TEMP              0 ****  ****    0 ROOT
